version 2
run General-0-20210809-00:17:02-3732
attr configname General
attr datetime 20210809-00:17:02
attr experiment General
attr inifile omnetpp.ini
attr iterationvars ""
attr iterationvarsf ""
attr measurement ""
attr network SatNet
attr processid 3732
attr repetition 0
attr replication #0
attr resultdir results
attr runnumber 0
attr seedset 0

scalar SatNet.sat1_1.upper$o.channel packetsDiscarded:count 0
attr interpolationmode none
attr source constant1(messageDiscarded)
scalar SatNet.sat1_1.upper$o.channel packets:count 265
attr interpolationmode none
attr source constant1(messageSent)
scalar SatNet.sat1_1.upper$o.channel packetBytes:sum 135680
attr interpolationmode none
attr source packetBytes(messageSent)
attr unit B
scalar SatNet.sat1_1.upper$o.channel throughput:last 546203.11908353
attr source sumPerDuration(packetBits(messageSent))
attr unit bps
scalar SatNet.sat1_1.upper$o.channel utilization:last 0.036408538434351
attr source timeavg(channelBusy)
scalar SatNet.sat1_1.lower$o.channel packetsDiscarded:count 0
attr interpolationmode none
attr source constant1(messageDiscarded)
scalar SatNet.sat1_1.lower$o.channel packets:count 393
attr interpolationmode none
attr source constant1(messageSent)
scalar SatNet.sat1_1.lower$o.channel packetBytes:sum 201216
attr interpolationmode none
attr source packetBytes(messageSent)
attr unit B
scalar SatNet.sat1_1.lower$o.channel throughput:last 805836.99444806
attr source sumPerDuration(packetBits(messageSent))
attr unit bps
scalar SatNet.sat1_1.lower$o.channel utilization:last 0.053715123591327
attr source timeavg(channelBusy)
scalar SatNet.sat1_1.right$o.channel packetsDiscarded:count 0
attr interpolationmode none
attr source constant1(messageDiscarded)
scalar SatNet.sat1_1.right$o.channel packets:count 78
attr interpolationmode none
attr source constant1(messageSent)
scalar SatNet.sat1_1.right$o.channel packetBytes:sum 39936
attr interpolationmode none
attr source packetBytes(messageSent)
attr unit B
scalar SatNet.sat1_1.right$o.channel throughput:last 164328.77276
attr source sumPerDuration(packetBits(messageSent))
attr unit bps
scalar SatNet.sat1_1.right$o.channel utilization:last 0.010953713060428
attr source timeavg(channelBusy)
scalar SatNet.sat1_2.upper$o.channel packetsDiscarded:count 0
attr interpolationmode none
attr source constant1(messageDiscarded)
scalar SatNet.sat1_2.upper$o.channel packets:count 117
attr interpolationmode none
attr source constant1(messageSent)
scalar SatNet.sat1_2.upper$o.channel packetBytes:sum 59904
attr interpolationmode none
attr source packetBytes(messageSent)
attr unit B
scalar SatNet.sat1_2.upper$o.channel throughput:last 239436.29531113
attr source sumPerDuration(packetBits(messageSent))
attr unit bps
scalar SatNet.sat1_2.upper$o.channel utilization:last 0.015960242236081
attr source timeavg(channelBusy)
scalar SatNet.sat1_2.lower$o.channel packetsDiscarded:count 0
attr interpolationmode none
attr source constant1(messageDiscarded)
scalar SatNet.sat1_2.lower$o.channel packets:count 639
attr interpolationmode none
attr source constant1(messageSent)
scalar SatNet.sat1_2.lower$o.channel packetBytes:sum 327168
attr interpolationmode none
attr source packetBytes(messageSent)
attr unit B
scalar SatNet.sat1_2.lower$o.channel throughput:last 1307655.0715202
attr source sumPerDuration(packetBits(messageSent))
attr unit bps
scalar SatNet.sat1_2.lower$o.channel utilization:last 0.087165113178815
attr source timeavg(channelBusy)
scalar SatNet.sat1_2.right$o.channel packetsDiscarded:count 0
attr interpolationmode none
attr source constant1(messageDiscarded)
scalar SatNet.sat1_2.right$o.channel packets:count 66
attr interpolationmode none
attr source constant1(messageSent)
scalar SatNet.sat1_2.right$o.channel packetBytes:sum 33792
attr interpolationmode none
attr source packetBytes(messageSent)
attr unit B
scalar SatNet.sat1_2.right$o.channel throughput:last 135222.08883553
attr source sumPerDuration(packetBits(messageSent))
attr unit bps
scalar SatNet.sat1_2.right$o.channel utilization:last 0.0090135747875025
attr source timeavg(channelBusy)
scalar SatNet.sat1_3.upper$o.channel packetsDiscarded:count 0
attr interpolationmode none
attr source constant1(messageDiscarded)
scalar SatNet.sat1_3.upper$o.channel packets:count 25
attr interpolationmode none
attr source constant1(messageSent)
scalar SatNet.sat1_3.upper$o.channel packetBytes:sum 12800
attr interpolationmode none
attr source packetBytes(messageSent)
attr unit B
scalar SatNet.sat1_3.upper$o.channel throughput:last 51198.412898811
attr source sumPerDuration(packetBits(messageSent))
attr unit bps
scalar SatNet.sat1_3.upper$o.channel utilization:last 0.0034127615894814
attr source timeavg(channelBusy)
scalar SatNet.sat1_3.lower$o.channel packetsDiscarded:count 0
attr interpolationmode none
attr source constant1(messageDiscarded)
scalar SatNet.sat1_3.lower$o.channel packets:count 903
attr interpolationmode none
attr source constant1(messageSent)
scalar SatNet.sat1_3.lower$o.channel packetBytes:sum 462336
attr interpolationmode none
attr source packetBytes(messageSent)
attr unit B
scalar SatNet.sat1_3.lower$o.channel throughput:last 1846579.2891753
attr source sumPerDuration(packetBits(messageSent))
attr unit bps
scalar SatNet.sat1_3.lower$o.channel utilization:last 0.12308850553528
attr source timeavg(channelBusy)
scalar SatNet.sat1_3.right$o.channel packetsDiscarded:count 0
attr interpolationmode none
attr source constant1(messageDiscarded)
scalar SatNet.sat1_3.right$o.channel packets:count 96
attr interpolationmode none
attr source constant1(messageSent)
scalar SatNet.sat1_3.right$o.channel packetBytes:sum 49152
attr interpolationmode none
attr source packetBytes(messageSent)
attr unit B
scalar SatNet.sat1_3.right$o.channel throughput:last 203662.99556423
attr source sumPerDuration(packetBits(messageSent))
attr unit bps
scalar SatNet.sat1_3.right$o.channel utilization:last 0.013575613019455
attr source timeavg(channelBusy)
scalar SatNet.sat1_4.upper$o.channel packetsDiscarded:count 0
attr interpolationmode none
attr source constant1(messageDiscarded)
scalar SatNet.sat1_4.upper$o.channel packets:count 39
attr interpolationmode none
attr source constant1(messageSent)
scalar SatNet.sat1_4.upper$o.channel packetBytes:sum 19968
attr interpolationmode none
attr source packetBytes(messageSent)
attr unit B
scalar SatNet.sat1_4.upper$o.channel throughput:last 82807.526825981
attr source sumPerDuration(packetBits(messageSent))
attr unit bps
scalar SatNet.sat1_4.upper$o.channel utilization:last 0.0055197204713743
attr source timeavg(channelBusy)
scalar SatNet.sat1_4.lower$o.channel packetsDiscarded:count 0
attr interpolationmode none
attr source constant1(messageDiscarded)
scalar SatNet.sat1_4.lower$o.channel packets:count 381
attr interpolationmode none
attr source constant1(messageSent)
scalar SatNet.sat1_4.lower$o.channel packetBytes:sum 195072
attr interpolationmode none
attr source packetBytes(messageSent)
attr unit B
scalar SatNet.sat1_4.lower$o.channel throughput:last 780556.48280942
attr source sumPerDuration(packetBits(messageSent))
attr unit bps
scalar SatNet.sat1_4.lower$o.channel utilization:last 0.052029992644848
attr source timeavg(channelBusy)
scalar SatNet.sat1_4.right$o.channel packetsDiscarded:count 0
attr interpolationmode none
attr source constant1(messageDiscarded)
scalar SatNet.sat1_4.right$o.channel packets:count 224
attr interpolationmode none
attr source constant1(messageSent)
scalar SatNet.sat1_4.right$o.channel packetBytes:sum 114688
attr interpolationmode none
attr source packetBytes(messageSent)
attr unit B
scalar SatNet.sat1_4.right$o.channel throughput:last 460617.50087856
attr source sumPerDuration(packetBits(messageSent))
attr unit bps
scalar SatNet.sat1_4.right$o.channel utilization:last 0.030703624314295
attr source timeavg(channelBusy)
scalar SatNet.sat1_5.upper$o.channel packetsDiscarded:count 0
attr interpolationmode none
attr source constant1(messageDiscarded)
scalar SatNet.sat1_5.upper$o.channel packets:count 543
attr interpolationmode none
attr source constant1(messageSent)
scalar SatNet.sat1_5.upper$o.channel packetBytes:sum 278016
attr interpolationmode none
attr source packetBytes(messageSent)
attr unit B
scalar SatNet.sat1_5.upper$o.channel throughput:last 1109580.5903515
attr source sumPerDuration(packetBits(messageSent))
attr unit bps
scalar SatNet.sat1_5.upper$o.channel utilization:last 0.073961963724598
attr source timeavg(channelBusy)
scalar SatNet.sat1_5.lower$o.channel packetsDiscarded:count 0
attr interpolationmode none
attr source constant1(messageDiscarded)
scalar SatNet.sat1_5.lower$o.channel packets:count 430
attr interpolationmode none
attr source constant1(messageSent)
scalar SatNet.sat1_5.lower$o.channel packetBytes:sum 220160
attr interpolationmode none
attr source packetBytes(messageSent)
attr unit B
scalar SatNet.sat1_5.lower$o.channel throughput:last 880230.25324359
attr source sumPerDuration(packetBits(messageSent))
attr unit bps
scalar SatNet.sat1_5.lower$o.channel utilization:last 0.058674009723764
attr source timeavg(channelBusy)
scalar SatNet.sat1_5.right$o.channel packetsDiscarded:count 0
attr interpolationmode none
attr source constant1(messageDiscarded)
scalar SatNet.sat1_5.right$o.channel packets:count 121
attr interpolationmode none
attr source constant1(messageSent)
scalar SatNet.sat1_5.right$o.channel packetBytes:sum 61952
attr interpolationmode none
attr source packetBytes(messageSent)
attr unit B
scalar SatNet.sat1_5.right$o.channel throughput:last 248526.37471925
attr source sumPerDuration(packetBits(messageSent))
attr unit bps
scalar SatNet.sat1_5.right$o.channel utilization:last 0.016566156612059
attr source timeavg(channelBusy)
scalar SatNet.sat1_6.upper$o.channel packetsDiscarded:count 0
attr interpolationmode none
attr source constant1(messageDiscarded)
scalar SatNet.sat1_6.upper$o.channel packets:count 476
attr interpolationmode none
attr source constant1(messageSent)
scalar SatNet.sat1_6.upper$o.channel packetBytes:sum 243712
attr interpolationmode none
attr source packetBytes(messageSent)
attr unit B
scalar SatNet.sat1_6.upper$o.channel throughput:last 973369.82274142
attr source sumPerDuration(packetBits(messageSent))
attr unit bps
scalar SatNet.sat1_6.upper$o.channel utilization:last 0.064882476406983
attr source timeavg(channelBusy)
scalar SatNet.sat1_6.lower$o.channel packetsDiscarded:count 0
attr interpolationmode none
attr source constant1(messageDiscarded)
scalar SatNet.sat1_6.lower$o.channel packets:count 816
attr interpolationmode none
attr source constant1(messageSent)
scalar SatNet.sat1_6.lower$o.channel packetBytes:sum 417792
attr interpolationmode none
attr source packetBytes(messageSent)
attr unit B
scalar SatNet.sat1_6.lower$o.channel throughput:last 1669189.955072
attr source sumPerDuration(packetBits(messageSent))
attr unit bps
scalar SatNet.sat1_6.lower$o.channel utilization:last 0.11126415718853
attr source timeavg(channelBusy)
scalar SatNet.sat1_6.right$o.channel packetsDiscarded:count 0
attr interpolationmode none
attr source constant1(messageDiscarded)
scalar SatNet.sat1_6.right$o.channel packets:count 174
attr interpolationmode none
attr source constant1(messageSent)
scalar SatNet.sat1_6.right$o.channel packetBytes:sum 89088
attr interpolationmode none
attr source packetBytes(messageSent)
attr unit B
scalar SatNet.sat1_6.right$o.channel throughput:last 356352
attr source sumPerDuration(packetBits(messageSent))
attr unit bps
scalar SatNet.sat1_6.right$o.channel utilization:last 0.023753556876697
attr source timeavg(channelBusy)
scalar SatNet.sat1_7.upper$o.channel packetsDiscarded:count 0
attr interpolationmode none
attr source constant1(messageDiscarded)
scalar SatNet.sat1_7.upper$o.channel packets:count 309
attr interpolationmode none
attr source constant1(messageSent)
scalar SatNet.sat1_7.upper$o.channel packetBytes:sum 158208
attr interpolationmode none
attr source packetBytes(messageSent)
attr unit B
scalar SatNet.sat1_7.upper$o.channel throughput:last 632171.01147265
attr source sumPerDuration(packetBits(messageSent))
attr unit bps
scalar SatNet.sat1_7.upper$o.channel utilization:last 0.042138986782648
attr source timeavg(channelBusy)
scalar SatNet.sat1_7.lower$o.channel packetsDiscarded:count 0
attr interpolationmode none
attr source constant1(messageDiscarded)
scalar SatNet.sat1_7.lower$o.channel packets:count 749
attr interpolationmode none
attr source constant1(messageSent)
scalar SatNet.sat1_7.lower$o.channel packetBytes:sum 383488
attr interpolationmode none
attr source packetBytes(messageSent)
attr unit B
scalar SatNet.sat1_7.lower$o.channel throughput:last 1531412.816198
attr source sumPerDuration(packetBits(messageSent))
attr unit bps
scalar SatNet.sat1_7.lower$o.channel utilization:last 0.10208027358194
attr source timeavg(channelBusy)
scalar SatNet.sat1_7.right$o.channel packetsDiscarded:count 0
attr interpolationmode none
attr source constant1(messageDiscarded)
scalar SatNet.sat1_7.right$o.channel packets:count 308
attr interpolationmode none
attr source constant1(messageSent)
scalar SatNet.sat1_7.right$o.channel packetBytes:sum 157696
attr interpolationmode none
attr source packetBytes(messageSent)
attr unit B
scalar SatNet.sat1_7.right$o.channel throughput:last 631970.18697517
attr source sumPerDuration(packetBits(messageSent))
attr unit bps
scalar SatNet.sat1_7.right$o.channel utilization:last 0.042125583487674
attr source timeavg(channelBusy)
scalar SatNet.sat1_8.upper$o.channel packetsDiscarded:count 0
attr interpolationmode none
attr source constant1(messageDiscarded)
scalar SatNet.sat1_8.upper$o.channel packets:count 360
attr interpolationmode none
attr source constant1(messageSent)
scalar SatNet.sat1_8.upper$o.channel packetBytes:sum 184320
attr interpolationmode none
attr source packetBytes(messageSent)
attr unit B
scalar SatNet.sat1_8.upper$o.channel throughput:last 736858.1106604
attr source sumPerDuration(packetBits(messageSent))
attr unit bps
scalar SatNet.sat1_8.upper$o.channel utilization:last 0.049117171810202
attr source timeavg(channelBusy)
scalar SatNet.sat1_8.lower$o.channel packetsDiscarded:count 0
attr interpolationmode none
attr source constant1(messageDiscarded)
scalar SatNet.sat1_8.lower$o.channel packets:count 362
attr interpolationmode none
attr source constant1(messageSent)
scalar SatNet.sat1_8.lower$o.channel packetBytes:sum 185344
attr interpolationmode none
attr source packetBytes(messageSent)
attr unit B
scalar SatNet.sat1_8.lower$o.channel throughput:last 740464.71624327
attr source sumPerDuration(packetBits(messageSent))
attr unit bps
scalar SatNet.sat1_8.lower$o.channel utilization:last 0.049357583804409
attr source timeavg(channelBusy)
scalar SatNet.sat1_8.right$o.channel packetsDiscarded:count 0
attr interpolationmode none
attr source constant1(messageDiscarded)
scalar SatNet.sat1_8.right$o.channel packets:count 395
attr interpolationmode none
attr source constant1(messageSent)
scalar SatNet.sat1_8.right$o.channel packetBytes:sum 202240
attr interpolationmode none
attr source packetBytes(messageSent)
attr unit B
scalar SatNet.sat1_8.right$o.channel throughput:last 809106.01666567
attr source sumPerDuration(packetBits(messageSent))
attr unit bps
scalar SatNet.sat1_8.right$o.channel utilization:last 0.053933036190539
attr source timeavg(channelBusy)
scalar SatNet.sat1_9.upper$o.channel packetsDiscarded:count 0
attr interpolationmode none
attr source constant1(messageDiscarded)
scalar SatNet.sat1_9.upper$o.channel packets:count 581
attr interpolationmode none
attr source constant1(messageSent)
scalar SatNet.sat1_9.upper$o.channel packetBytes:sum 297472
attr interpolationmode none
attr source packetBytes(messageSent)
attr unit B
scalar SatNet.sat1_9.upper$o.channel throughput:last 1190062.9174308
attr source sumPerDuration(packetBits(messageSent))
attr unit bps
scalar SatNet.sat1_9.upper$o.channel utilization:last 0.079326695595231
attr source timeavg(channelBusy)
scalar SatNet.sat1_9.lower$o.channel packetsDiscarded:count 0
attr interpolationmode none
attr source constant1(messageDiscarded)
scalar SatNet.sat1_9.lower$o.channel packets:count 44
attr interpolationmode none
attr source constant1(messageSent)
scalar SatNet.sat1_9.lower$o.channel packetBytes:sum 22528
attr interpolationmode none
attr source packetBytes(messageSent)
attr unit B
scalar SatNet.sat1_9.lower$o.channel throughput:last 98758.288125377
attr source sumPerDuration(packetBits(messageSent))
attr unit bps
scalar SatNet.sat1_9.lower$o.channel utilization:last 0.0065829008587886
attr source timeavg(channelBusy)
scalar SatNet.sat1_9.right$o.channel packetsDiscarded:count 0
attr interpolationmode none
attr source constant1(messageDiscarded)
scalar SatNet.sat1_9.right$o.channel packets:count 250
attr interpolationmode none
attr source constant1(messageSent)
scalar SatNet.sat1_9.right$o.channel packetBytes:sum 128000
attr interpolationmode none
attr source packetBytes(messageSent)
attr unit B
scalar SatNet.sat1_9.right$o.channel throughput:last 514249.81060129
attr source sumPerDuration(packetBits(messageSent))
attr unit bps
scalar SatNet.sat1_9.right$o.channel utilization:last 0.034278620008904
attr source timeavg(channelBusy)
scalar SatNet.sat1_10.upper$o.channel packetsDiscarded:count 0
attr interpolationmode none
attr source constant1(messageDiscarded)
scalar SatNet.sat1_10.upper$o.channel packets:count 510
attr interpolationmode none
attr source constant1(messageSent)
scalar SatNet.sat1_10.upper$o.channel packetBytes:sum 261120
attr interpolationmode none
attr source packetBytes(messageSent)
attr unit B
scalar SatNet.sat1_10.upper$o.channel throughput:last 1047914.4855839
attr source sumPerDuration(packetBits(messageSent))
attr unit bps
scalar SatNet.sat1_10.upper$o.channel utilization:last 0.069851397386788
attr source timeavg(channelBusy)
scalar SatNet.sat1_10.lower$o.channel packetsDiscarded:count 0
attr interpolationmode none
attr source constant1(messageDiscarded)
scalar SatNet.sat1_10.lower$o.channel packets:count 145
attr interpolationmode none
attr source constant1(messageSent)
scalar SatNet.sat1_10.lower$o.channel packetBytes:sum 74240
attr interpolationmode none
attr source packetBytes(messageSent)
attr unit B
scalar SatNet.sat1_10.lower$o.channel throughput:last 297674.41860465
attr source sumPerDuration(packetBits(messageSent))
attr unit bps
scalar SatNet.sat1_10.lower$o.channel utilization:last 0.019842245619047
attr source timeavg(channelBusy)
scalar SatNet.sat1_10.right$o.channel packetsDiscarded:count 0
attr interpolationmode none
attr source constant1(messageDiscarded)
scalar SatNet.sat1_10.right$o.channel packets:count 120
attr interpolationmode none
attr source constant1(messageSent)
scalar SatNet.sat1_10.right$o.channel packetBytes:sum 61440
attr interpolationmode none
attr source packetBytes(messageSent)
attr unit B
scalar SatNet.sat1_10.right$o.channel throughput:last 248092.0654149
attr source sumPerDuration(packetBits(messageSent))
attr unit bps
scalar SatNet.sat1_10.right$o.channel utilization:last 0.016537191744483
attr source timeavg(channelBusy)
scalar SatNet.sat1_11.upper$o.channel packetsDiscarded:count 0
attr interpolationmode none
attr source constant1(messageDiscarded)
scalar SatNet.sat1_11.upper$o.channel packets:count 340
attr interpolationmode none
attr source constant1(messageSent)
scalar SatNet.sat1_11.upper$o.channel packetBytes:sum 174080
attr interpolationmode none
attr source packetBytes(messageSent)
attr unit B
scalar SatNet.sat1_11.upper$o.channel throughput:last 699114.34722866
attr source sumPerDuration(packetBits(messageSent))
attr unit bps
scalar SatNet.sat1_11.upper$o.channel utilization:last 0.046601235050165
attr source timeavg(channelBusy)
scalar SatNet.sat1_11.lower$o.channel packetsDiscarded:count 0
attr interpolationmode none
attr source constant1(messageDiscarded)
scalar SatNet.sat1_11.lower$o.channel packets:count 244
attr interpolationmode none
attr source constant1(messageSent)
scalar SatNet.sat1_11.lower$o.channel packetBytes:sum 124928
attr interpolationmode none
attr source packetBytes(messageSent)
attr unit B
scalar SatNet.sat1_11.lower$o.channel throughput:last 500553.16290507
attr source sumPerDuration(packetBits(messageSent))
attr unit bps
scalar SatNet.sat1_11.lower$o.channel utilization:last 0.033365647709676
attr source timeavg(channelBusy)
scalar SatNet.sat1_11.right$o.channel packetsDiscarded:count 0
attr interpolationmode none
attr source constant1(messageDiscarded)
scalar SatNet.sat1_11.right$o.channel packets:count 75
attr interpolationmode none
attr source constant1(messageSent)
scalar SatNet.sat1_11.right$o.channel packetBytes:sum 38400
attr interpolationmode none
attr source packetBytes(messageSent)
attr unit B
scalar SatNet.sat1_11.right$o.channel throughput:last 155903.78503464
attr source sumPerDuration(packetBits(messageSent))
attr unit bps
scalar SatNet.sat1_11.right$o.channel utilization:last 0.010392145526264
attr source timeavg(channelBusy)
scalar SatNet.sat2_1.upper$o.channel packetsDiscarded:count 0
attr interpolationmode none
attr source constant1(messageDiscarded)
scalar SatNet.sat2_1.upper$o.channel packets:count 384
attr interpolationmode none
attr source constant1(messageSent)
scalar SatNet.sat2_1.upper$o.channel packetBytes:sum 196608
attr interpolationmode none
attr source packetBytes(messageSent)
attr unit B
scalar SatNet.sat2_1.upper$o.channel throughput:last 786254.2659125
attr source sumPerDuration(packetBits(messageSent))
attr unit bps
scalar SatNet.sat2_1.upper$o.channel utilization:last 0.052409797057707
attr source timeavg(channelBusy)
scalar SatNet.sat2_1.lower$o.channel packetsDiscarded:count 0
attr interpolationmode none
attr source constant1(messageDiscarded)
scalar SatNet.sat2_1.lower$o.channel packets:count 438
attr interpolationmode none
attr source constant1(messageSent)
scalar SatNet.sat2_1.lower$o.channel packetBytes:sum 224256
attr interpolationmode none
attr source packetBytes(messageSent)
attr unit B
scalar SatNet.sat2_1.lower$o.channel throughput:last 897740.37031826
attr source sumPerDuration(packetBits(messageSent))
attr unit bps
scalar SatNet.sat2_1.lower$o.channel utilization:last 0.059841181253441
attr source timeavg(channelBusy)
scalar SatNet.sat2_1.left$o.channel packetsDiscarded:count 0
attr interpolationmode none
attr source constant1(messageDiscarded)
scalar SatNet.sat2_1.left$o.channel packets:count 214
attr interpolationmode none
attr source constant1(messageSent)
scalar SatNet.sat2_1.left$o.channel packetBytes:sum 109568
attr interpolationmode none
attr source packetBytes(messageSent)
attr unit B
scalar SatNet.sat2_1.left$o.channel throughput:last 440573.53337524
attr source sumPerDuration(packetBits(messageSent))
attr unit bps
scalar SatNet.sat2_1.left$o.channel utilization:last 0.029367538223456
attr source timeavg(channelBusy)
scalar SatNet.sat2_1.right$o.channel packetsDiscarded:count 0
attr interpolationmode none
attr source constant1(messageDiscarded)
scalar SatNet.sat2_1.right$o.channel packets:count 63
attr interpolationmode none
attr source constant1(messageSent)
scalar SatNet.sat2_1.right$o.channel packetBytes:sum 32256
attr interpolationmode none
attr source packetBytes(messageSent)
attr unit B
scalar SatNet.sat2_1.right$o.channel throughput:last 129525.77616465
attr source sumPerDuration(packetBits(messageSent))
attr unit bps
scalar SatNet.sat2_1.right$o.channel utilization:last 0.0086338683596109
attr source timeavg(channelBusy)
scalar SatNet.sat2_2.upper$o.channel packetsDiscarded:count 0
attr interpolationmode none
attr source constant1(messageDiscarded)
scalar SatNet.sat2_2.upper$o.channel packets:count 189
attr interpolationmode none
attr source constant1(messageSent)
scalar SatNet.sat2_2.upper$o.channel packetBytes:sum 96768
attr interpolationmode none
attr source packetBytes(messageSent)
attr unit B
scalar SatNet.sat2_2.upper$o.channel throughput:last 387167.62330482
attr source sumPerDuration(packetBits(messageSent))
attr unit bps
scalar SatNet.sat2_2.upper$o.channel utilization:last 0.02580765044347
attr source timeavg(channelBusy)
scalar SatNet.sat2_2.lower$o.channel packetsDiscarded:count 0
attr interpolationmode none
attr source constant1(messageDiscarded)
scalar SatNet.sat2_2.lower$o.channel packets:count 762
attr interpolationmode none
attr source constant1(messageSent)
scalar SatNet.sat2_2.lower$o.channel packetBytes:sum 390144
attr interpolationmode none
attr source packetBytes(messageSent)
attr unit B
scalar SatNet.sat2_2.lower$o.channel throughput:last 1559290.1236016
attr source sumPerDuration(packetBits(messageSent))
attr unit bps
scalar SatNet.sat2_2.lower$o.channel utilization:last 0.10393849565747
attr source timeavg(channelBusy)
scalar SatNet.sat2_2.left$o.channel packetsDiscarded:count 0
attr interpolationmode none
attr source constant1(messageDiscarded)
scalar SatNet.sat2_2.left$o.channel packets:count 254
attr interpolationmode none
attr source constant1(messageSent)
scalar SatNet.sat2_2.left$o.channel packetBytes:sum 130048
attr interpolationmode none
attr source packetBytes(messageSent)
attr unit B
scalar SatNet.sat2_2.left$o.channel throughput:last 519867.26231474
attr source sumPerDuration(packetBits(messageSent))
attr unit bps
scalar SatNet.sat2_2.left$o.channel utilization:last 0.03465308918176
attr source timeavg(channelBusy)
scalar SatNet.sat2_2.right$o.channel packetsDiscarded:count 0
attr interpolationmode none
attr source constant1(messageDiscarded)
scalar SatNet.sat2_2.right$o.channel packets:count 101
attr interpolationmode none
attr source constant1(messageSent)
scalar SatNet.sat2_2.right$o.channel packetBytes:sum 51712
attr interpolationmode none
attr source packetBytes(messageSent)
attr unit B
scalar SatNet.sat2_2.right$o.channel throughput:last 210222.06412927
attr source sumPerDuration(packetBits(messageSent))
attr unit bps
scalar SatNet.sat2_2.right$o.channel utilization:last 0.014012859861813
attr source timeavg(channelBusy)
scalar SatNet.sat2_3.upper$o.channel packetsDiscarded:count 0
attr interpolationmode none
attr source constant1(messageDiscarded)
scalar SatNet.sat2_3.upper$o.channel packets:count 28
attr interpolationmode none
attr source constant1(messageSent)
scalar SatNet.sat2_3.upper$o.channel packetBytes:sum 14336
attr interpolationmode none
attr source packetBytes(messageSent)
attr unit B
scalar SatNet.sat2_3.upper$o.channel throughput:last 64616.378349451
attr source sumPerDuration(packetBits(messageSent))
attr unit bps
scalar SatNet.sat2_3.upper$o.channel utilization:last 0.0043070959215553
attr source timeavg(channelBusy)
scalar SatNet.sat2_3.lower$o.channel packetsDiscarded:count 0
attr interpolationmode none
attr source constant1(messageDiscarded)
scalar SatNet.sat2_3.lower$o.channel packets:count 784
attr interpolationmode none
attr source constant1(messageSent)
scalar SatNet.sat2_3.lower$o.channel packetBytes:sum 401408
attr interpolationmode none
attr source packetBytes(messageSent)
attr unit B
scalar SatNet.sat2_3.lower$o.channel throughput:last 1606832.27425
attr source sumPerDuration(packetBits(messageSent))
attr unit bps
scalar SatNet.sat2_3.lower$o.channel utilization:last 0.10710751706925
attr source timeavg(channelBusy)
scalar SatNet.sat2_3.left$o.channel packetsDiscarded:count 0
attr interpolationmode none
attr source constant1(messageDiscarded)
scalar SatNet.sat2_3.left$o.channel packets:count 265
attr interpolationmode none
attr source constant1(messageSent)
scalar SatNet.sat2_3.left$o.channel packetBytes:sum 135680
attr interpolationmode none
attr source packetBytes(messageSent)
attr unit B
scalar SatNet.sat2_3.left$o.channel throughput:last 542786.23039724
attr source sumPerDuration(packetBits(messageSent))
attr unit bps
scalar SatNet.sat2_3.left$o.channel utilization:last 0.036180808248127
attr source timeavg(channelBusy)
scalar SatNet.sat2_3.right$o.channel packetsDiscarded:count 0
attr interpolationmode none
attr source constant1(messageDiscarded)
scalar SatNet.sat2_3.right$o.channel packets:count 93
attr interpolationmode none
attr source constant1(messageSent)
scalar SatNet.sat2_3.right$o.channel packetBytes:sum 47616
attr interpolationmode none
attr source packetBytes(messageSent)
attr unit B
scalar SatNet.sat2_3.right$o.channel throughput:last 194786.01089002
attr source sumPerDuration(packetBits(messageSent))
attr unit bps
scalar SatNet.sat2_3.right$o.channel utilization:last 0.012983921110167
attr source timeavg(channelBusy)
scalar SatNet.sat2_4.upper$o.channel packetsDiscarded:count 0
attr interpolationmode none
attr source constant1(messageDiscarded)
scalar SatNet.sat2_4.upper$o.channel packets:count 254
attr interpolationmode none
attr source constant1(messageSent)
scalar SatNet.sat2_4.upper$o.channel packetBytes:sum 130048
attr interpolationmode none
attr source packetBytes(messageSent)
attr unit B
scalar SatNet.sat2_4.upper$o.channel throughput:last 519423.77422109
attr source sumPerDuration(packetBits(messageSent))
attr unit bps
scalar SatNet.sat2_4.upper$o.channel utilization:last 0.034623531372137
attr source timeavg(channelBusy)
scalar SatNet.sat2_4.lower$o.channel packetsDiscarded:count 0
attr interpolationmode none
attr source constant1(messageDiscarded)
scalar SatNet.sat2_4.lower$o.channel packets:count 612
attr interpolationmode none
attr source constant1(messageSent)
scalar SatNet.sat2_4.lower$o.channel packetBytes:sum 313344
attr interpolationmode none
attr source packetBytes(messageSent)
attr unit B
scalar SatNet.sat2_4.lower$o.channel throughput:last 1257967.5816731
attr source sumPerDuration(packetBits(messageSent))
attr unit bps
scalar SatNet.sat2_4.lower$o.channel utilization:last 0.083853014874647
attr source timeavg(channelBusy)
scalar SatNet.sat2_4.left$o.channel packetsDiscarded:count 0
attr interpolationmode none
attr source constant1(messageDiscarded)
scalar SatNet.sat2_4.left$o.channel packets:count 715
attr interpolationmode none
attr source constant1(messageSent)
scalar SatNet.sat2_4.left$o.channel packetBytes:sum 366080
attr interpolationmode none
attr source packetBytes(messageSent)
attr unit B
scalar SatNet.sat2_4.left$o.channel throughput:last 1462044.080548
attr source sumPerDuration(packetBits(messageSent))
attr unit bps
scalar SatNet.sat2_4.left$o.channel utilization:last 0.097456320133499
attr source timeavg(channelBusy)
scalar SatNet.sat2_4.right$o.channel packetsDiscarded:count 0
attr interpolationmode none
attr source constant1(messageDiscarded)
scalar SatNet.sat2_4.right$o.channel packets:count 165
attr interpolationmode none
attr source constant1(messageSent)
scalar SatNet.sat2_4.right$o.channel packetBytes:sum 84480
attr interpolationmode none
attr source packetBytes(messageSent)
attr unit B
scalar SatNet.sat2_4.right$o.channel throughput:last 339617.06022357
attr source sumPerDuration(packetBits(messageSent))
attr unit bps
scalar SatNet.sat2_4.right$o.channel utilization:last 0.022638031007573
attr source timeavg(channelBusy)
scalar SatNet.sat2_5.upper$o.channel packetsDiscarded:count 0
attr interpolationmode none
attr source constant1(messageDiscarded)
scalar SatNet.sat2_5.upper$o.channel packets:count 601
attr interpolationmode none
attr source constant1(messageSent)
scalar SatNet.sat2_5.upper$o.channel packetBytes:sum 307712
attr interpolationmode none
attr source packetBytes(messageSent)
attr unit B
scalar SatNet.sat2_5.upper$o.channel throughput:last 1230024.4576246
attr source sumPerDuration(packetBits(messageSent))
attr unit bps
scalar SatNet.sat2_5.upper$o.channel utilization:last 0.081990443669845
attr source timeavg(channelBusy)
scalar SatNet.sat2_5.lower$o.channel packetsDiscarded:count 0
attr interpolationmode none
attr source constant1(messageDiscarded)
scalar SatNet.sat2_5.lower$o.channel packets:count 822
attr interpolationmode none
attr source constant1(messageSent)
scalar SatNet.sat2_5.lower$o.channel packetBytes:sum 420864
attr interpolationmode none
attr source packetBytes(messageSent)
attr unit B
scalar SatNet.sat2_5.lower$o.channel throughput:last 1688077.142945
attr source sumPerDuration(packetBits(messageSent))
attr unit bps
scalar SatNet.sat2_5.lower$o.channel utilization:last 0.11252307101137
attr source timeavg(channelBusy)
scalar SatNet.sat2_5.left$o.channel packetsDiscarded:count 0
attr interpolationmode none
attr source constant1(messageDiscarded)
scalar SatNet.sat2_5.left$o.channel packets:count 188
attr interpolationmode none
attr source constant1(messageSent)
scalar SatNet.sat2_5.left$o.channel packetBytes:sum 96256
attr interpolationmode none
attr source packetBytes(messageSent)
attr unit B
scalar SatNet.sat2_5.left$o.channel throughput:last 386997.68820987
attr source sumPerDuration(packetBits(messageSent))
attr unit bps
scalar SatNet.sat2_5.left$o.channel utilization:last 0.025796305801967
attr source timeavg(channelBusy)
scalar SatNet.sat2_5.right$o.channel packetsDiscarded:count 0
attr interpolationmode none
attr source constant1(messageDiscarded)
scalar SatNet.sat2_5.right$o.channel packets:count 178
attr interpolationmode none
attr source constant1(messageSent)
scalar SatNet.sat2_5.right$o.channel packetBytes:sum 91136
attr interpolationmode none
attr source packetBytes(messageSent)
attr unit B
scalar SatNet.sat2_5.right$o.channel throughput:last 365582.45053267
attr source sumPerDuration(packetBits(messageSent))
attr unit bps
scalar SatNet.sat2_5.right$o.channel utilization:last 0.024368826763609
attr source timeavg(channelBusy)
scalar SatNet.sat2_6.upper$o.channel packetsDiscarded:count 0
attr interpolationmode none
attr source constant1(messageDiscarded)
scalar SatNet.sat2_6.upper$o.channel packets:count 467
attr interpolationmode none
attr source constant1(messageSent)
scalar SatNet.sat2_6.upper$o.channel packetBytes:sum 239104
attr interpolationmode none
attr source packetBytes(messageSent)
attr unit B
scalar SatNet.sat2_6.upper$o.channel throughput:last 956463.82319116
attr source sumPerDuration(packetBits(messageSent))
attr unit bps
scalar SatNet.sat2_6.upper$o.channel utilization:last 0.06375554976425
attr source timeavg(channelBusy)
scalar SatNet.sat2_6.lower$o.channel packetsDiscarded:count 0
attr interpolationmode none
attr source constant1(messageDiscarded)
scalar SatNet.sat2_6.lower$o.channel packets:count 1278
attr interpolationmode none
attr source constant1(messageSent)
scalar SatNet.sat2_6.lower$o.channel packetBytes:sum 654336
attr interpolationmode none
attr source packetBytes(messageSent)
attr unit B
scalar SatNet.sat2_6.lower$o.channel throughput:last 2621275.9138708
attr source sumPerDuration(packetBits(messageSent))
attr unit bps
scalar SatNet.sat2_6.lower$o.channel utilization:last 0.17472783579281
attr source timeavg(channelBusy)
scalar SatNet.sat2_6.left$o.channel packetsDiscarded:count 0
attr interpolationmode none
attr source constant1(messageDiscarded)
scalar SatNet.sat2_6.left$o.channel packets:count 299
attr interpolationmode none
attr source constant1(messageSent)
scalar SatNet.sat2_6.left$o.channel packetBytes:sum 153088
attr interpolationmode none
attr source packetBytes(messageSent)
attr unit B
scalar SatNet.sat2_6.left$o.channel throughput:last 612379.48257003
attr source sumPerDuration(packetBits(messageSent))
attr unit bps
scalar SatNet.sat2_6.left$o.channel utilization:last 0.040819725384529
attr source timeavg(channelBusy)
scalar SatNet.sat2_6.right$o.channel packetsDiscarded:count 0
attr interpolationmode none
attr source constant1(messageDiscarded)
scalar SatNet.sat2_6.right$o.channel packets:count 230
attr interpolationmode none
attr source constant1(messageSent)
scalar SatNet.sat2_6.right$o.channel packetBytes:sum 117760
attr interpolationmode none
attr source packetBytes(messageSent)
attr unit B
scalar SatNet.sat2_6.right$o.channel throughput:last 470967.93327172
attr source sumPerDuration(packetBits(messageSent))
attr unit bps
scalar SatNet.sat2_6.right$o.channel utilization:last 0.03139357664255
attr source timeavg(channelBusy)
scalar SatNet.sat2_7.upper$o.channel packetsDiscarded:count 0
attr interpolationmode none
attr source constant1(messageDiscarded)
scalar SatNet.sat2_7.upper$o.channel packets:count 320
attr interpolationmode none
attr source constant1(messageSent)
scalar SatNet.sat2_7.upper$o.channel packetBytes:sum 163840
attr interpolationmode none
attr source packetBytes(messageSent)
attr unit B
scalar SatNet.sat2_7.upper$o.channel throughput:last 655699.59446937
attr source sumPerDuration(packetBits(messageSent))
attr unit bps
scalar SatNet.sat2_7.upper$o.channel utilization:last 0.043707335750827
attr source timeavg(channelBusy)
scalar SatNet.sat2_7.lower$o.channel packetsDiscarded:count 0
attr interpolationmode none
attr source constant1(messageDiscarded)
scalar SatNet.sat2_7.lower$o.channel packets:count 706
attr interpolationmode none
attr source constant1(messageSent)
scalar SatNet.sat2_7.lower$o.channel packetBytes:sum 361472
attr interpolationmode none
attr source packetBytes(messageSent)
attr unit B
scalar SatNet.sat2_7.lower$o.channel throughput:last 1446538.9425241
attr source sumPerDuration(packetBits(messageSent))
attr unit bps
scalar SatNet.sat2_7.lower$o.channel utilization:last 0.096422758771767
attr source timeavg(channelBusy)
scalar SatNet.sat2_7.left$o.channel packetsDiscarded:count 0
attr interpolationmode none
attr source constant1(messageDiscarded)
scalar SatNet.sat2_7.left$o.channel packets:count 172
attr interpolationmode none
attr source constant1(messageSent)
scalar SatNet.sat2_7.left$o.channel packetBytes:sum 88064
attr interpolationmode none
attr source packetBytes(messageSent)
attr unit B
scalar SatNet.sat2_7.left$o.channel throughput:last 352043.14063509
attr source sumPerDuration(packetBits(messageSent))
attr unit bps
scalar SatNet.sat2_7.left$o.channel utilization:last 0.023466340735988
attr source timeavg(channelBusy)
scalar SatNet.sat2_7.right$o.channel packetsDiscarded:count 0
attr interpolationmode none
attr source constant1(messageDiscarded)
scalar SatNet.sat2_7.right$o.channel packets:count 473
attr interpolationmode none
attr source constant1(messageSent)
scalar SatNet.sat2_7.right$o.channel packetBytes:sum 242176
attr interpolationmode none
attr source packetBytes(messageSent)
attr unit B
scalar SatNet.sat2_7.right$o.channel throughput:last 968272.55227431
attr source sumPerDuration(packetBits(messageSent))
attr unit bps
scalar SatNet.sat2_7.right$o.channel utilization:last 0.064542695259264
attr source timeavg(channelBusy)
scalar SatNet.sat2_8.upper$o.channel packetsDiscarded:count 0
attr interpolationmode none
attr source constant1(messageDiscarded)
scalar SatNet.sat2_8.upper$o.channel packets:count 781
attr interpolationmode none
attr source constant1(messageSent)
scalar SatNet.sat2_8.upper$o.channel packetBytes:sum 399872
attr interpolationmode none
attr source packetBytes(messageSent)
attr unit B
scalar SatNet.sat2_8.upper$o.channel throughput:last 1596958.9979481
attr source sumPerDuration(packetBits(messageSent))
attr unit bps
scalar SatNet.sat2_8.upper$o.channel utilization:last 0.10644942241202
attr source timeavg(channelBusy)
scalar SatNet.sat2_8.lower$o.channel packetsDiscarded:count 0
attr interpolationmode none
attr source constant1(messageDiscarded)
scalar SatNet.sat2_8.lower$o.channel packets:count 290
attr interpolationmode none
attr source constant1(messageSent)
scalar SatNet.sat2_8.lower$o.channel packetBytes:sum 148480
attr interpolationmode none
attr source packetBytes(messageSent)
attr unit B
scalar SatNet.sat2_8.lower$o.channel throughput:last 594249.17442582
attr source sumPerDuration(packetBits(messageSent))
attr unit bps
scalar SatNet.sat2_8.lower$o.channel utilization:last 0.03961120043004
attr source timeavg(channelBusy)
scalar SatNet.sat2_8.left$o.channel packetsDiscarded:count 0
attr interpolationmode none
attr source constant1(messageDiscarded)
scalar SatNet.sat2_8.left$o.channel packets:count 519
attr interpolationmode none
attr source constant1(messageSent)
scalar SatNet.sat2_8.left$o.channel packetBytes:sum 265728
attr interpolationmode none
attr source packetBytes(messageSent)
attr unit B
scalar SatNet.sat2_8.left$o.channel throughput:last 1062237.3659664
attr source sumPerDuration(packetBits(messageSent))
attr unit bps
scalar SatNet.sat2_8.left$o.channel utilization:last 0.070806163218643
attr source timeavg(channelBusy)
scalar SatNet.sat2_8.right$o.channel packetsDiscarded:count 0
attr interpolationmode none
attr source constant1(messageDiscarded)
scalar SatNet.sat2_8.right$o.channel packets:count 427
attr interpolationmode none
attr source constant1(messageSent)
scalar SatNet.sat2_8.right$o.channel packetBytes:sum 218624
attr interpolationmode none
attr source packetBytes(messageSent)
attr unit B
scalar SatNet.sat2_8.right$o.channel throughput:last 874475.85790593
attr source sumPerDuration(packetBits(messageSent))
attr unit bps
scalar SatNet.sat2_8.right$o.channel utilization:last 0.058290432194517
attr source timeavg(channelBusy)
scalar SatNet.sat2_9.upper$o.channel packetsDiscarded:count 0
attr interpolationmode none
attr source constant1(messageDiscarded)
scalar SatNet.sat2_9.upper$o.channel packets:count 1140
attr interpolationmode none
attr source constant1(messageSent)
scalar SatNet.sat2_9.upper$o.channel packetBytes:sum 583680
attr interpolationmode none
attr source packetBytes(messageSent)
attr unit B
scalar SatNet.sat2_9.upper$o.channel throughput:last 2332704.3035642
attr source sumPerDuration(packetBits(messageSent))
attr unit bps
scalar SatNet.sat2_9.upper$o.channel utilization:last 0.15549240885951
attr source timeavg(channelBusy)
scalar SatNet.sat2_9.lower$o.channel packetsDiscarded:count 0
attr interpolationmode none
attr source constant1(messageDiscarded)
scalar SatNet.sat2_9.lower$o.channel packets:count 79
attr interpolationmode none
attr source constant1(messageSent)
scalar SatNet.sat2_9.lower$o.channel packetBytes:sum 40448
attr interpolationmode none
attr source packetBytes(messageSent)
attr unit B
scalar SatNet.sat2_9.lower$o.channel throughput:last 162246.28961091
attr source sumPerDuration(packetBits(messageSent))
attr unit bps
scalar SatNet.sat2_9.lower$o.channel utilization:last 0.010814938574894
attr source timeavg(channelBusy)
scalar SatNet.sat2_9.left$o.channel packetsDiscarded:count 0
attr interpolationmode none
attr source constant1(messageDiscarded)
scalar SatNet.sat2_9.left$o.channel packets:count 467
attr interpolationmode none
attr source constant1(messageSent)
scalar SatNet.sat2_9.left$o.channel packetBytes:sum 239104
attr interpolationmode none
attr source packetBytes(messageSent)
attr unit B
scalar SatNet.sat2_9.left$o.channel throughput:last 956479.01489441
attr source sumPerDuration(packetBits(messageSent))
attr unit bps
scalar SatNet.sat2_9.left$o.channel utilization:last 0.063756562267952
attr source timeavg(channelBusy)
scalar SatNet.sat2_9.right$o.channel packetsDiscarded:count 0
attr interpolationmode none
attr source constant1(messageDiscarded)
scalar SatNet.sat2_9.right$o.channel packets:count 236
attr interpolationmode none
attr source constant1(messageSent)
scalar SatNet.sat2_9.right$o.channel packetBytes:sum 120832
attr interpolationmode none
attr source packetBytes(messageSent)
attr unit B
scalar SatNet.sat2_9.right$o.channel throughput:last 485377.22323235
attr source sumPerDuration(packetBits(messageSent))
attr unit bps
scalar SatNet.sat2_9.right$o.channel utilization:last 0.032354045453645
attr source timeavg(channelBusy)
scalar SatNet.sat2_10.upper$o.channel packetsDiscarded:count 0
attr interpolationmode none
attr source constant1(messageDiscarded)
scalar SatNet.sat2_10.upper$o.channel packets:count 963
attr interpolationmode none
attr source constant1(messageSent)
scalar SatNet.sat2_10.upper$o.channel packetBytes:sum 493056
attr interpolationmode none
attr source packetBytes(messageSent)
attr unit B
scalar SatNet.sat2_10.upper$o.channel throughput:last 1972116.2435665
attr source sumPerDuration(packetBits(messageSent))
attr unit bps
scalar SatNet.sat2_10.upper$o.channel utilization:last 0.13145646918894
attr source timeavg(channelBusy)
scalar SatNet.sat2_10.lower$o.channel packetsDiscarded:count 0
attr interpolationmode none
attr source constant1(messageDiscarded)
scalar SatNet.sat2_10.lower$o.channel packets:count 197
attr interpolationmode none
attr source constant1(messageSent)
scalar SatNet.sat2_10.lower$o.channel packetBytes:sum 100864
attr interpolationmode none
attr source packetBytes(messageSent)
attr unit B
scalar SatNet.sat2_10.lower$o.channel throughput:last 404260.69593415
attr source sumPerDuration(packetBits(messageSent))
attr unit bps
scalar SatNet.sat2_10.lower$o.channel utilization:last 0.026947026589681
attr source timeavg(channelBusy)
scalar SatNet.sat2_10.left$o.channel packetsDiscarded:count 0
attr interpolationmode none
attr source constant1(messageDiscarded)
scalar SatNet.sat2_10.left$o.channel packets:count 222
attr interpolationmode none
attr source constant1(messageSent)
scalar SatNet.sat2_10.left$o.channel packetBytes:sum 113664
attr interpolationmode none
attr source packetBytes(messageSent)
attr unit B
scalar SatNet.sat2_10.left$o.channel throughput:last 455886.89461546
attr source sumPerDuration(packetBits(messageSent))
attr unit bps
scalar SatNet.sat2_10.left$o.channel utilization:last 0.030388299429639
attr source timeavg(channelBusy)
scalar SatNet.sat2_10.right$o.channel packetsDiscarded:count 0
attr interpolationmode none
attr source constant1(messageDiscarded)
scalar SatNet.sat2_10.right$o.channel packets:count 183
attr interpolationmode none
attr source constant1(messageSent)
scalar SatNet.sat2_10.right$o.channel packetBytes:sum 93696
attr interpolationmode none
attr source packetBytes(messageSent)
attr unit B
scalar SatNet.sat2_10.right$o.channel throughput:last 374253.07772239
attr source sumPerDuration(packetBits(messageSent))
attr unit bps
scalar SatNet.sat2_10.right$o.channel utilization:last 0.024946803966712
attr source timeavg(channelBusy)
scalar SatNet.sat2_11.upper$o.channel packetsDiscarded:count 0
attr interpolationmode none
attr source constant1(messageDiscarded)
scalar SatNet.sat2_11.upper$o.channel packets:count 570
attr interpolationmode none
attr source constant1(messageSent)
scalar SatNet.sat2_11.upper$o.channel packetBytes:sum 291840
attr interpolationmode none
attr source packetBytes(messageSent)
attr unit B
scalar SatNet.sat2_11.upper$o.channel throughput:last 1166544.4862472
attr source sumPerDuration(packetBits(messageSent))
attr unit bps
scalar SatNet.sat2_11.upper$o.channel utilization:last 0.077759023229555
attr source timeavg(channelBusy)
scalar SatNet.sat2_11.lower$o.channel packetsDiscarded:count 0
attr interpolationmode none
attr source constant1(messageDiscarded)
scalar SatNet.sat2_11.lower$o.channel packets:count 320
attr interpolationmode none
attr source constant1(messageSent)
scalar SatNet.sat2_11.lower$o.channel packetBytes:sum 163840
attr interpolationmode none
attr source packetBytes(messageSent)
attr unit B
scalar SatNet.sat2_11.lower$o.channel throughput:last 656194.02511127
attr source sumPerDuration(packetBits(messageSent))
attr unit bps
scalar SatNet.sat2_11.lower$o.channel utilization:last 0.043740288786612
attr source timeavg(channelBusy)
scalar SatNet.sat2_11.left$o.channel packetsDiscarded:count 0
attr interpolationmode none
attr source constant1(messageDiscarded)
scalar SatNet.sat2_11.left$o.channel packets:count 187
attr interpolationmode none
attr source constant1(messageSent)
scalar SatNet.sat2_11.left$o.channel packetBytes:sum 95744
attr interpolationmode none
attr source packetBytes(messageSent)
attr unit B
scalar SatNet.sat2_11.left$o.channel throughput:last 384571.97369082
attr source sumPerDuration(packetBits(messageSent))
attr unit bps
scalar SatNet.sat2_11.left$o.channel utilization:last 0.025634617045521
attr source timeavg(channelBusy)
scalar SatNet.sat2_11.right$o.channel packetsDiscarded:count 0
attr interpolationmode none
attr source constant1(messageDiscarded)
scalar SatNet.sat2_11.right$o.channel packets:count 115
attr interpolationmode none
attr source constant1(messageSent)
scalar SatNet.sat2_11.right$o.channel packetBytes:sum 58880
attr interpolationmode none
attr source packetBytes(messageSent)
attr unit B
scalar SatNet.sat2_11.right$o.channel throughput:last 236394.6602429
attr source sumPerDuration(packetBits(messageSent))
attr unit bps
scalar SatNet.sat2_11.right$o.channel utilization:last 0.015757484623704
attr source timeavg(channelBusy)
scalar SatNet.sat3_1.upper$o.channel packetsDiscarded:count 0
attr interpolationmode none
attr source constant1(messageDiscarded)
scalar SatNet.sat3_1.upper$o.channel packets:count 342
attr interpolationmode none
attr source constant1(messageSent)
scalar SatNet.sat3_1.upper$o.channel packetBytes:sum 175104
attr interpolationmode none
attr source packetBytes(messageSent)
attr unit B
scalar SatNet.sat3_1.upper$o.channel throughput:last 703443.91453704
attr source sumPerDuration(packetBits(messageSent))
attr unit bps
scalar SatNet.sat3_1.upper$o.channel utilization:last 0.046889831325302
attr source timeavg(channelBusy)
scalar SatNet.sat3_1.lower$o.channel packetsDiscarded:count 0
attr interpolationmode none
attr source constant1(messageDiscarded)
scalar SatNet.sat3_1.lower$o.channel packets:count 96
attr interpolationmode none
attr source constant1(messageSent)
scalar SatNet.sat3_1.lower$o.channel packetBytes:sum 49152
attr interpolationmode none
attr source packetBytes(messageSent)
attr unit B
scalar SatNet.sat3_1.lower$o.channel throughput:last 196608.27459609
attr source sumPerDuration(packetBits(messageSent))
attr unit bps
scalar SatNet.sat3_1.lower$o.channel utilization:last 0.013105428992
attr source timeavg(channelBusy)
scalar SatNet.sat3_1.left$o.channel packetsDiscarded:count 0
attr interpolationmode none
attr source constant1(messageDiscarded)
scalar SatNet.sat3_1.left$o.channel packets:count 460
attr interpolationmode none
attr source constant1(messageSent)
scalar SatNet.sat3_1.left$o.channel packetBytes:sum 235520
attr interpolationmode none
attr source packetBytes(messageSent)
attr unit B
scalar SatNet.sat3_1.left$o.channel throughput:last 947172.91720321
attr source sumPerDuration(packetBits(messageSent))
attr unit bps
scalar SatNet.sat3_1.left$o.channel utilization:last 0.063136194427798
attr source timeavg(channelBusy)
scalar SatNet.sat3_1.right$o.channel packetsDiscarded:count 0
attr interpolationmode none
attr source constant1(messageDiscarded)
scalar SatNet.sat3_1.right$o.channel packets:count 46
attr interpolationmode none
attr source constant1(messageSent)
scalar SatNet.sat3_1.right$o.channel packetBytes:sum 23552
attr interpolationmode none
attr source packetBytes(messageSent)
attr unit B
scalar SatNet.sat3_1.right$o.channel throughput:last 94257.670650495
attr source sumPerDuration(packetBits(messageSent))
attr unit bps
scalar SatNet.sat3_1.right$o.channel utilization:last 0.0062829864283324
attr source timeavg(channelBusy)
scalar SatNet.sat3_2.upper$o.channel packetsDiscarded:count 0
attr interpolationmode none
attr source constant1(messageDiscarded)
scalar SatNet.sat3_2.upper$o.channel packets:count 261
attr interpolationmode none
attr source constant1(messageSent)
scalar SatNet.sat3_2.upper$o.channel packetBytes:sum 133632
attr interpolationmode none
attr source packetBytes(messageSent)
attr unit B
scalar SatNet.sat3_2.upper$o.channel throughput:last 537093.93854135
attr source sumPerDuration(packetBits(messageSent))
attr unit bps
scalar SatNet.sat3_2.upper$o.channel utilization:last 0.035801351070686
attr source timeavg(channelBusy)
scalar SatNet.sat3_2.lower$o.channel packetsDiscarded:count 0
attr interpolationmode none
attr source constant1(messageDiscarded)
scalar SatNet.sat3_2.lower$o.channel packets:count 151
attr interpolationmode none
attr source constant1(messageSent)
scalar SatNet.sat3_2.lower$o.channel packetBytes:sum 77312
attr interpolationmode none
attr source packetBytes(messageSent)
attr unit B
scalar SatNet.sat3_2.lower$o.channel throughput:last 316057.12307057
attr source sumPerDuration(packetBits(messageSent))
attr unit bps
scalar SatNet.sat3_2.lower$o.channel utilization:last 0.021067535142321
attr source timeavg(channelBusy)
scalar SatNet.sat3_2.left$o.channel packetsDiscarded:count 0
attr interpolationmode none
attr source constant1(messageDiscarded)
scalar SatNet.sat3_2.left$o.channel packets:count 438
attr interpolationmode none
attr source constant1(messageSent)
scalar SatNet.sat3_2.left$o.channel packetBytes:sum 224256
attr interpolationmode none
attr source packetBytes(messageSent)
attr unit B
scalar SatNet.sat3_2.left$o.channel throughput:last 896421.93016215
attr source sumPerDuration(packetBits(messageSent))
attr unit bps
scalar SatNet.sat3_2.left$o.channel utilization:last 0.059753309241011
attr source timeavg(channelBusy)
scalar SatNet.sat3_2.right$o.channel packetsDiscarded:count 0
attr interpolationmode none
attr source constant1(messageDiscarded)
scalar SatNet.sat3_2.right$o.channel packets:count 73
attr interpolationmode none
attr source constant1(messageSent)
scalar SatNet.sat3_2.right$o.channel packetBytes:sum 37376
attr interpolationmode none
attr source packetBytes(messageSent)
attr unit B
scalar SatNet.sat3_2.right$o.channel throughput:last 151919.05442295
attr source sumPerDuration(packetBits(messageSent))
attr unit bps
scalar SatNet.sat3_2.right$o.channel utilization:last 0.010126532030357
attr source timeavg(channelBusy)
scalar SatNet.sat3_3.upper$o.channel packetsDiscarded:count 0
attr interpolationmode none
attr source constant1(messageDiscarded)
scalar SatNet.sat3_3.upper$o.channel packets:count 90
attr interpolationmode none
attr source constant1(messageSent)
scalar SatNet.sat3_3.upper$o.channel packetBytes:sum 46080
attr interpolationmode none
attr source packetBytes(messageSent)
attr unit B
scalar SatNet.sat3_3.upper$o.channel throughput:last 191321.80042246
attr source sumPerDuration(packetBits(messageSent))
attr unit bps
scalar SatNet.sat3_3.upper$o.channel utilization:last 0.012752979360049
attr source timeavg(channelBusy)
scalar SatNet.sat3_3.lower$o.channel packetsDiscarded:count 0
attr interpolationmode none
attr source constant1(messageDiscarded)
scalar SatNet.sat3_3.lower$o.channel packets:count 248
attr interpolationmode none
attr source constant1(messageSent)
scalar SatNet.sat3_3.lower$o.channel packetBytes:sum 126976
attr interpolationmode none
attr source packetBytes(messageSent)
attr unit B
scalar SatNet.sat3_3.lower$o.channel throughput:last 508816.79868005
attr source sumPerDuration(packetBits(messageSent))
attr unit bps
scalar SatNet.sat3_3.lower$o.channel utilization:last 0.033916480900923
attr source timeavg(channelBusy)
scalar SatNet.sat3_3.left$o.channel packetsDiscarded:count 0
attr interpolationmode none
attr source constant1(messageDiscarded)
scalar SatNet.sat3_3.left$o.channel packets:count 817
attr interpolationmode none
attr source constant1(messageSent)
scalar SatNet.sat3_3.left$o.channel packetBytes:sum 418304
attr interpolationmode none
attr source packetBytes(messageSent)
attr unit B
scalar SatNet.sat3_3.left$o.channel throughput:last 1674723.2509258
attr source sumPerDuration(packetBits(messageSent))
attr unit bps
scalar SatNet.sat3_3.left$o.channel utilization:last 0.1116329615145
attr source timeavg(channelBusy)
scalar SatNet.sat3_3.right$o.channel packetsDiscarded:count 0
attr interpolationmode none
attr source constant1(messageDiscarded)
scalar SatNet.sat3_3.right$o.channel packets:count 146
attr interpolationmode none
attr source constant1(messageSent)
scalar SatNet.sat3_3.right$o.channel packetBytes:sum 74752
attr interpolationmode none
attr source packetBytes(messageSent)
attr unit B
scalar SatNet.sat3_3.right$o.channel throughput:last 300398.25996024
attr source sumPerDuration(packetBits(messageSent))
attr unit bps
scalar SatNet.sat3_3.right$o.channel utilization:last 0.020023804060195
attr source timeavg(channelBusy)
scalar SatNet.sat3_4.upper$o.channel packetsDiscarded:count 0
attr interpolationmode none
attr source constant1(messageDiscarded)
scalar SatNet.sat3_4.upper$o.channel packets:count 101
attr interpolationmode none
attr source constant1(messageSent)
scalar SatNet.sat3_4.upper$o.channel packetBytes:sum 51712
attr interpolationmode none
attr source packetBytes(messageSent)
attr unit B
scalar SatNet.sat3_4.upper$o.channel throughput:last 207978.88912335
attr source sumPerDuration(packetBits(messageSent))
attr unit bps
scalar SatNet.sat3_4.upper$o.channel utilization:last 0.013863356133128
attr source timeavg(channelBusy)
scalar SatNet.sat3_4.lower$o.channel packetsDiscarded:count 0
attr interpolationmode none
attr source constant1(messageDiscarded)
scalar SatNet.sat3_4.lower$o.channel packets:count 574
attr interpolationmode none
attr source constant1(messageSent)
scalar SatNet.sat3_4.lower$o.channel packetBytes:sum 293888
attr interpolationmode none
attr source packetBytes(messageSent)
attr unit B
scalar SatNet.sat3_4.lower$o.channel throughput:last 1176316.6057938
attr source sumPerDuration(packetBits(messageSent))
attr unit bps
scalar SatNet.sat3_4.lower$o.channel utilization:last 0.07841039455291
attr source timeavg(channelBusy)
scalar SatNet.sat3_4.left$o.channel packetsDiscarded:count 0
attr interpolationmode none
attr source constant1(messageDiscarded)
scalar SatNet.sat3_4.left$o.channel packets:count 932
attr interpolationmode none
attr source constant1(messageSent)
scalar SatNet.sat3_4.left$o.channel packetBytes:sum 477184
attr interpolationmode none
attr source packetBytes(messageSent)
attr unit B
scalar SatNet.sat3_4.left$o.channel throughput:last 1906060.5558459
attr source sumPerDuration(packetBits(messageSent))
attr unit bps
scalar SatNet.sat3_4.left$o.channel utilization:last 0.12705338117155
attr source timeavg(channelBusy)
scalar SatNet.sat3_4.right$o.channel packetsDiscarded:count 0
attr interpolationmode none
attr source constant1(messageDiscarded)
scalar SatNet.sat3_4.right$o.channel packets:count 188
attr interpolationmode none
attr source constant1(messageSent)
scalar SatNet.sat3_4.right$o.channel packetBytes:sum 96256
attr interpolationmode none
attr source packetBytes(messageSent)
attr unit B
scalar SatNet.sat3_4.right$o.channel throughput:last 386898.12030838
attr source sumPerDuration(packetBits(messageSent))
attr unit bps
scalar SatNet.sat3_4.right$o.channel utilization:last 0.02578966976312
attr source timeavg(channelBusy)
scalar SatNet.sat3_5.upper$o.channel packetsDiscarded:count 0
attr interpolationmode none
attr source constant1(messageDiscarded)
scalar SatNet.sat3_5.upper$o.channel packets:count 210
attr interpolationmode none
attr source constant1(messageSent)
scalar SatNet.sat3_5.upper$o.channel packetBytes:sum 107520
attr interpolationmode none
attr source packetBytes(messageSent)
attr unit B
scalar SatNet.sat3_5.upper$o.channel throughput:last 432783.59115954
attr source sumPerDuration(packetBits(messageSent))
attr unit bps
scalar SatNet.sat3_5.upper$o.channel utilization:last 0.028848275934594
attr source timeavg(channelBusy)
scalar SatNet.sat3_5.lower$o.channel packetsDiscarded:count 0
attr interpolationmode none
attr source constant1(messageDiscarded)
scalar SatNet.sat3_5.lower$o.channel packets:count 897
attr interpolationmode none
attr source constant1(messageSent)
scalar SatNet.sat3_5.lower$o.channel packetBytes:sum 459264
attr interpolationmode none
attr source packetBytes(messageSent)
attr unit B
scalar SatNet.sat3_5.lower$o.channel throughput:last 1836763.1045233
attr source sumPerDuration(packetBits(messageSent))
attr unit bps
scalar SatNet.sat3_5.lower$o.channel utilization:last 0.12243416010556
attr source timeavg(channelBusy)
scalar SatNet.sat3_5.left$o.channel packetsDiscarded:count 0
attr interpolationmode none
attr source constant1(messageDiscarded)
scalar SatNet.sat3_5.left$o.channel packets:count 313
attr interpolationmode none
attr source constant1(messageSent)
scalar SatNet.sat3_5.left$o.channel packetBytes:sum 160256
attr interpolationmode none
attr source packetBytes(messageSent)
attr unit B
scalar SatNet.sat3_5.left$o.channel throughput:last 641619.06853553
attr source sumPerDuration(packetBits(messageSent))
attr unit bps
scalar SatNet.sat3_5.left$o.channel utilization:last 0.042768759839167
attr source timeavg(channelBusy)
scalar SatNet.sat3_5.right$o.channel packetsDiscarded:count 0
attr interpolationmode none
attr source constant1(messageDiscarded)
scalar SatNet.sat3_5.right$o.channel packets:count 177
attr interpolationmode none
attr source constant1(messageSent)
scalar SatNet.sat3_5.right$o.channel packetBytes:sum 90624
attr interpolationmode none
attr source packetBytes(messageSent)
attr unit B
scalar SatNet.sat3_5.right$o.channel throughput:last 364514.50593605
attr source sumPerDuration(packetBits(messageSent))
attr unit bps
scalar SatNet.sat3_5.right$o.channel utilization:last 0.024297631182826
attr source timeavg(channelBusy)
scalar SatNet.sat3_6.upper$o.channel packetsDiscarded:count 0
attr interpolationmode none
attr source constant1(messageDiscarded)
scalar SatNet.sat3_6.upper$o.channel packets:count 161
attr interpolationmode none
attr source constant1(messageSent)
scalar SatNet.sat3_6.upper$o.channel packetBytes:sum 82432
attr interpolationmode none
attr source packetBytes(messageSent)
attr unit B
scalar SatNet.sat3_6.upper$o.channel throughput:last 332535.92112488
attr source sumPerDuration(packetBits(messageSent))
attr unit bps
scalar SatNet.sat3_6.upper$o.channel utilization:last 0.022166009263827
attr source timeavg(channelBusy)
scalar SatNet.sat3_6.lower$o.channel packetsDiscarded:count 0
attr interpolationmode none
attr source constant1(messageDiscarded)
scalar SatNet.sat3_6.lower$o.channel packets:count 993
attr interpolationmode none
attr source constant1(messageSent)
scalar SatNet.sat3_6.lower$o.channel packetBytes:sum 508416
attr interpolationmode none
attr source packetBytes(messageSent)
attr unit B
scalar SatNet.sat3_6.lower$o.channel throughput:last 2031877.9870071
attr source sumPerDuration(packetBits(messageSent))
attr unit bps
scalar SatNet.sat3_6.lower$o.channel utilization:last 0.13544005679025
attr source timeavg(channelBusy)
scalar SatNet.sat3_6.left$o.channel packetsDiscarded:count 0
attr interpolationmode none
attr source constant1(messageDiscarded)
scalar SatNet.sat3_6.left$o.channel packets:count 486
attr interpolationmode none
attr source constant1(messageSent)
scalar SatNet.sat3_6.left$o.channel packetBytes:sum 248832
attr interpolationmode none
attr source packetBytes(messageSent)
attr unit B
scalar SatNet.sat3_6.left$o.channel throughput:last 1001161.7360638
attr source sumPerDuration(packetBits(messageSent))
attr unit bps
scalar SatNet.sat3_6.left$o.channel utilization:last 0.066734950869906
attr source timeavg(channelBusy)
scalar SatNet.sat3_6.right$o.channel packetsDiscarded:count 0
attr interpolationmode none
attr source constant1(messageDiscarded)
scalar SatNet.sat3_6.right$o.channel packets:count 149
attr interpolationmode none
attr source constant1(messageSent)
scalar SatNet.sat3_6.right$o.channel packetBytes:sum 76288
attr interpolationmode none
attr source packetBytes(messageSent)
attr unit B
scalar SatNet.sat3_6.right$o.channel throughput:last 305435.55516986
attr source sumPerDuration(packetBits(messageSent))
attr unit bps
scalar SatNet.sat3_6.right$o.channel utilization:last 0.020359588024065
attr source timeavg(channelBusy)
scalar SatNet.sat3_7.upper$o.channel packetsDiscarded:count 0
attr interpolationmode none
attr source constant1(messageDiscarded)
scalar SatNet.sat3_7.upper$o.channel packets:count 144
attr interpolationmode none
attr source constant1(messageSent)
scalar SatNet.sat3_7.upper$o.channel packetBytes:sum 73728
attr interpolationmode none
attr source packetBytes(messageSent)
attr unit B
scalar SatNet.sat3_7.upper$o.channel throughput:last 295325.86868776
attr source sumPerDuration(packetBits(messageSent))
attr unit bps
scalar SatNet.sat3_7.upper$o.channel utilization:last 0.01968569974378
attr source timeavg(channelBusy)
scalar SatNet.sat3_7.lower$o.channel packetsDiscarded:count 0
attr interpolationmode none
attr source constant1(messageDiscarded)
scalar SatNet.sat3_7.lower$o.channel packets:count 636
attr interpolationmode none
attr source constant1(messageSent)
scalar SatNet.sat3_7.lower$o.channel packetBytes:sum 325632
attr interpolationmode none
attr source packetBytes(messageSent)
attr unit B
scalar SatNet.sat3_7.lower$o.channel throughput:last 1300769.3214845
attr source sumPerDuration(packetBits(messageSent))
attr unit bps
scalar SatNet.sat3_7.lower$o.channel utilization:last 0.086706132578263
attr source timeavg(channelBusy)
scalar SatNet.sat3_7.left$o.channel packetsDiscarded:count 0
attr interpolationmode none
attr source constant1(messageDiscarded)
scalar SatNet.sat3_7.left$o.channel packets:count 760
attr interpolationmode none
attr source constant1(messageSent)
scalar SatNet.sat3_7.left$o.channel packetBytes:sum 389120
attr interpolationmode none
attr source packetBytes(messageSent)
attr unit B
scalar SatNet.sat3_7.left$o.channel throughput:last 1552128.3734496
attr source sumPerDuration(packetBits(messageSent))
attr unit bps
scalar SatNet.sat3_7.left$o.channel utilization:last 0.10346113862216
attr source timeavg(channelBusy)
scalar SatNet.sat3_7.right$o.channel packetsDiscarded:count 0
attr interpolationmode none
attr source constant1(messageDiscarded)
scalar SatNet.sat3_7.right$o.channel packets:count 352
attr interpolationmode none
attr source constant1(messageSent)
scalar SatNet.sat3_7.right$o.channel packetBytes:sum 180224
attr interpolationmode none
attr source packetBytes(messageSent)
attr unit B
scalar SatNet.sat3_7.right$o.channel throughput:last 722030.2589944
attr source sumPerDuration(packetBits(messageSent))
attr unit bps
scalar SatNet.sat3_7.right$o.channel utilization:last 0.04812876913799
attr source timeavg(channelBusy)
scalar SatNet.sat3_8.upper$o.channel packetsDiscarded:count 0
attr interpolationmode none
attr source constant1(messageDiscarded)
scalar SatNet.sat3_8.upper$o.channel packets:count 484
attr interpolationmode none
attr source constant1(messageSent)
scalar SatNet.sat3_8.upper$o.channel packetBytes:sum 247808
attr interpolationmode none
attr source packetBytes(messageSent)
attr unit B
scalar SatNet.sat3_8.upper$o.channel throughput:last 992520.74069066
attr source sumPerDuration(packetBits(messageSent))
attr unit bps
scalar SatNet.sat3_8.upper$o.channel utilization:last 0.066159004806632
attr source timeavg(channelBusy)
scalar SatNet.sat3_8.lower$o.channel packetsDiscarded:count 0
attr interpolationmode none
attr source constant1(messageDiscarded)
scalar SatNet.sat3_8.lower$o.channel packets:count 232
attr interpolationmode none
attr source constant1(messageSent)
scalar SatNet.sat3_8.lower$o.channel packetBytes:sum 118784
attr interpolationmode none
attr source packetBytes(messageSent)
attr unit B
scalar SatNet.sat3_8.lower$o.channel throughput:last 475778.73663176
attr source sumPerDuration(packetBits(messageSent))
attr unit bps
scalar SatNet.sat3_8.lower$o.channel utilization:last 0.031714246571587
attr source timeavg(channelBusy)
scalar SatNet.sat3_8.left$o.channel packetsDiscarded:count 0
attr interpolationmode none
attr source constant1(messageDiscarded)
scalar SatNet.sat3_8.left$o.channel packets:count 820
attr interpolationmode none
attr source constant1(messageSent)
scalar SatNet.sat3_8.left$o.channel packetBytes:sum 419840
attr interpolationmode none
attr source packetBytes(messageSent)
attr unit B
scalar SatNet.sat3_8.left$o.channel throughput:last 1678550.790246
attr source sumPerDuration(packetBits(messageSent))
attr unit bps
scalar SatNet.sat3_8.left$o.channel utilization:last 0.11188811705645
attr source timeavg(channelBusy)
scalar SatNet.sat3_8.right$o.channel packetsDiscarded:count 0
attr interpolationmode none
attr source constant1(messageDiscarded)
scalar SatNet.sat3_8.right$o.channel packets:count 420
attr interpolationmode none
attr source constant1(messageSent)
scalar SatNet.sat3_8.right$o.channel packetBytes:sum 215040
attr interpolationmode none
attr source packetBytes(messageSent)
attr unit B
scalar SatNet.sat3_8.right$o.channel throughput:last 860008.59405338
attr source sumPerDuration(packetBits(messageSent))
attr unit bps
scalar SatNet.sat3_8.right$o.channel utilization:last 0.057326080797005
attr source timeavg(channelBusy)
scalar SatNet.sat3_9.upper$o.channel packetsDiscarded:count 0
attr interpolationmode none
attr source constant1(messageDiscarded)
scalar SatNet.sat3_9.upper$o.channel packets:count 779
attr interpolationmode none
attr source constant1(messageSent)
scalar SatNet.sat3_9.upper$o.channel packetBytes:sum 398848
attr interpolationmode none
attr source packetBytes(messageSent)
attr unit B
scalar SatNet.sat3_9.upper$o.channel throughput:last 1596378.5387647
attr source sumPerDuration(packetBits(messageSent))
attr unit bps
scalar SatNet.sat3_9.upper$o.channel utilization:last 0.10641069845616
attr source timeavg(channelBusy)
scalar SatNet.sat3_9.lower$o.channel packetsDiscarded:count 0
attr interpolationmode none
attr source constant1(messageDiscarded)
scalar SatNet.sat3_9.lower$o.channel packets:count 102
attr interpolationmode none
attr source constant1(messageSent)
scalar SatNet.sat3_9.lower$o.channel packetBytes:sum 52224
attr interpolationmode none
attr source packetBytes(messageSent)
attr unit B
scalar SatNet.sat3_9.lower$o.channel throughput:last 210570.03175243
attr source sumPerDuration(packetBits(messageSent))
attr unit bps
scalar SatNet.sat3_9.lower$o.channel utilization:last 0.014036070385082
attr source timeavg(channelBusy)
scalar SatNet.sat3_9.left$o.channel packetsDiscarded:count 0
attr interpolationmode none
attr source constant1(messageDiscarded)
scalar SatNet.sat3_9.left$o.channel packets:count 764
attr interpolationmode none
attr source constant1(messageSent)
scalar SatNet.sat3_9.left$o.channel packetBytes:sum 391168
attr interpolationmode none
attr source packetBytes(messageSent)
attr unit B
scalar SatNet.sat3_9.left$o.channel throughput:last 1565014.5824496
attr source sumPerDuration(packetBits(messageSent))
attr unit bps
scalar SatNet.sat3_9.left$o.channel utilization:last 0.10432005934003
attr source timeavg(channelBusy)
scalar SatNet.sat3_9.right$o.channel packetsDiscarded:count 0
attr interpolationmode none
attr source constant1(messageDiscarded)
scalar SatNet.sat3_9.right$o.channel packets:count 154
attr interpolationmode none
attr source constant1(messageSent)
scalar SatNet.sat3_9.right$o.channel packetBytes:sum 78848
attr interpolationmode none
attr source packetBytes(messageSent)
attr unit B
scalar SatNet.sat3_9.right$o.channel throughput:last 320976.99979646
attr source sumPerDuration(packetBits(messageSent))
attr unit bps
scalar SatNet.sat3_9.right$o.channel utilization:last 0.021395493752204
attr source timeavg(channelBusy)
scalar SatNet.sat3_10.upper$o.channel packetsDiscarded:count 0
attr interpolationmode none
attr source constant1(messageDiscarded)
scalar SatNet.sat3_10.upper$o.channel packets:count 648
attr interpolationmode none
attr source constant1(messageSent)
scalar SatNet.sat3_10.upper$o.channel packetBytes:sum 331776
attr interpolationmode none
attr source packetBytes(messageSent)
attr unit B
scalar SatNet.sat3_10.upper$o.channel throughput:last 1328470.1499906
attr source sumPerDuration(packetBits(messageSent))
attr unit bps
scalar SatNet.sat3_10.upper$o.channel utilization:last 0.088552573949937
attr source timeavg(channelBusy)
scalar SatNet.sat3_10.lower$o.channel packetsDiscarded:count 0
attr interpolationmode none
attr source constant1(messageDiscarded)
scalar SatNet.sat3_10.lower$o.channel packets:count 18
attr interpolationmode none
attr source constant1(messageSent)
scalar SatNet.sat3_10.lower$o.channel packetBytes:sum 9216
attr interpolationmode none
attr source packetBytes(messageSent)
attr unit B
scalar SatNet.sat3_10.lower$o.channel throughput:last 37129.121874145
attr source sumPerDuration(packetBits(messageSent))
attr unit bps
scalar SatNet.sat3_10.lower$o.channel utilization:last 0.0024749344533606
attr source timeavg(channelBusy)
scalar SatNet.sat3_10.left$o.channel packetsDiscarded:count 0
attr interpolationmode none
attr source constant1(messageDiscarded)
scalar SatNet.sat3_10.left$o.channel packets:count 391
attr interpolationmode none
attr source constant1(messageSent)
scalar SatNet.sat3_10.left$o.channel packetBytes:sum 200192
attr interpolationmode none
attr source packetBytes(messageSent)
attr unit B
scalar SatNet.sat3_10.left$o.channel throughput:last 803685.75434148
attr source sumPerDuration(packetBits(messageSent))
attr unit bps
scalar SatNet.sat3_10.left$o.channel utilization:last 0.053571709379607
attr source timeavg(channelBusy)
scalar SatNet.sat3_10.right$o.channel packetsDiscarded:count 0
attr interpolationmode none
attr source constant1(messageDiscarded)
scalar SatNet.sat3_10.right$o.channel packets:count 104
attr interpolationmode none
attr source constant1(messageSent)
scalar SatNet.sat3_10.right$o.channel packetBytes:sum 53248
attr interpolationmode none
attr source packetBytes(messageSent)
attr unit B
scalar SatNet.sat3_10.right$o.channel throughput:last 216947.04588847
attr source sumPerDuration(packetBits(messageSent))
attr unit bps
scalar SatNet.sat3_10.right$o.channel utilization:last 0.014461125321487
attr source timeavg(channelBusy)
scalar SatNet.sat3_11.upper$o.channel packetsDiscarded:count 0
attr interpolationmode none
attr source constant1(messageDiscarded)
scalar SatNet.sat3_11.upper$o.channel packets:count 649
attr interpolationmode none
attr source constant1(messageSent)
scalar SatNet.sat3_11.upper$o.channel packetBytes:sum 332288
attr interpolationmode none
attr source packetBytes(messageSent)
attr unit B
scalar SatNet.sat3_11.upper$o.channel throughput:last 1331479.2882087
attr source sumPerDuration(packetBits(messageSent))
attr unit bps
scalar SatNet.sat3_11.upper$o.channel utilization:last 0.088753147008233
attr source timeavg(channelBusy)
scalar SatNet.sat3_11.lower$o.channel packetsDiscarded:count 0
attr interpolationmode none
attr source constant1(messageDiscarded)
scalar SatNet.sat3_11.lower$o.channel packets:count 60
attr interpolationmode none
attr source constant1(messageSent)
scalar SatNet.sat3_11.lower$o.channel packetBytes:sum 30720
attr interpolationmode none
attr source packetBytes(messageSent)
attr unit B
scalar SatNet.sat3_11.lower$o.channel throughput:last 123003.003003
attr source sumPerDuration(packetBits(messageSent))
attr unit bps
scalar SatNet.sat3_11.lower$o.channel utilization:last 0.0081990796419668
attr source timeavg(channelBusy)
scalar SatNet.sat3_11.left$o.channel packetsDiscarded:count 0
attr interpolationmode none
attr source constant1(messageDiscarded)
scalar SatNet.sat3_11.left$o.channel packets:count 375
attr interpolationmode none
attr source constant1(messageSent)
scalar SatNet.sat3_11.left$o.channel packetBytes:sum 192000
attr interpolationmode none
attr source packetBytes(messageSent)
attr unit B
scalar SatNet.sat3_11.left$o.channel throughput:last 768628.67035631
attr source sumPerDuration(packetBits(messageSent))
attr unit bps
scalar SatNet.sat3_11.left$o.channel utilization:last 0.051234910420328
attr source timeavg(channelBusy)
scalar SatNet.sat3_11.right$o.channel packetsDiscarded:count 0
attr interpolationmode none
attr source constant1(messageDiscarded)
scalar SatNet.sat3_11.right$o.channel packets:count 136
attr interpolationmode none
attr source constant1(messageSent)
scalar SatNet.sat3_11.right$o.channel packetBytes:sum 69632
attr interpolationmode none
attr source packetBytes(messageSent)
attr unit B
scalar SatNet.sat3_11.right$o.channel throughput:last 282526.0014314
attr source sumPerDuration(packetBits(messageSent))
attr unit bps
scalar SatNet.sat3_11.right$o.channel utilization:last 0.018832458618793
attr source timeavg(channelBusy)
scalar SatNet.sat4_1.upper$o.channel packetsDiscarded:count 0
attr interpolationmode none
attr source constant1(messageDiscarded)
scalar SatNet.sat4_1.upper$o.channel packets:count 200
attr interpolationmode none
attr source constant1(messageSent)
scalar SatNet.sat4_1.upper$o.channel packetBytes:sum 102400
attr interpolationmode none
attr source packetBytes(messageSent)
attr unit B
scalar SatNet.sat4_1.upper$o.channel throughput:last 410192.3026445
attr source sumPerDuration(packetBits(messageSent))
attr unit bps
scalar SatNet.sat4_1.upper$o.channel utilization:last 0.027342414993621
attr source timeavg(channelBusy)
scalar SatNet.sat4_1.lower$o.channel packetsDiscarded:count 0
attr interpolationmode none
attr source constant1(messageDiscarded)
scalar SatNet.sat4_1.lower$o.channel packets:count 113
attr interpolationmode none
attr source constant1(messageSent)
scalar SatNet.sat4_1.lower$o.channel packetBytes:sum 57856
attr interpolationmode none
attr source packetBytes(messageSent)
attr unit B
scalar SatNet.sat4_1.lower$o.channel throughput:last 231413.45101772
attr source sumPerDuration(packetBits(messageSent))
attr unit bps
scalar SatNet.sat4_1.lower$o.channel utilization:last 0.015425457426892
attr source timeavg(channelBusy)
scalar SatNet.sat4_1.left$o.channel packetsDiscarded:count 0
attr interpolationmode none
attr source constant1(messageDiscarded)
scalar SatNet.sat4_1.left$o.channel packets:count 500
attr interpolationmode none
attr source constant1(messageSent)
scalar SatNet.sat4_1.left$o.channel packetBytes:sum 256000
attr interpolationmode none
attr source packetBytes(messageSent)
attr unit B
scalar SatNet.sat4_1.left$o.channel throughput:last 1024158.1453795
attr source sumPerDuration(packetBits(messageSent))
attr unit bps
scalar SatNet.sat4_1.left$o.channel utilization:last 0.068267887493563
attr source timeavg(channelBusy)
scalar SatNet.sat4_1.right$o.channel packetsDiscarded:count 0
attr interpolationmode none
attr source constant1(messageDiscarded)
scalar SatNet.sat4_1.right$o.channel packets:count 67
attr interpolationmode none
attr source constant1(messageSent)
scalar SatNet.sat4_1.right$o.channel packetBytes:sum 34304
attr interpolationmode none
attr source packetBytes(messageSent)
[...]
attr interpolationmode none
attr source dropmsg
attr title "drop packet times, count"
statistic SatNet.sat6_7 dropPacketTimes:stats
field count 0
field mean nan
field stddev nan
field min nan
field max nan
field sum 0
field sqrsum 0
attr checkSignals false
attr interpolationmode none
attr source dropmsg
attr title "drop packet times, stats"
scalar SatNet.sat6_7 queue:mean 1.0749142239656
attr interpolationmode none
attr source queue
attr title "Queuing time, mean"
scalar SatNet.sat6_7 queue:sum 18.273541807416
attr interpolationmode none
attr source queue
attr title "Queuing time, sum"
statistic SatNet.sat6_7 queue:stats
field count 17
field mean 1.0749142239656
field stddev 0.62273325377423
field min 0.140511245698
field max 1.960284312365
field sum 18.273541807416
field sqrsum 25.847237296722
attr interpolationmode none
attr source queue
attr title "Queuing time, stats"
scalar SatNet.sat6_7 hopCount:mean 4.5882352941176
attr interpolationmode none
attr source arrival
attr title "hop count, mean"
statistic SatNet.sat6_7 hopCount:stats
field count 17
field mean 4.5882352941176
field stddev 2.2096047024698
field min 1
field max 9
field sum 78
field sqrsum 436
attr interpolationmode none
attr source arrival
attr title "hop count, stats"
scalar SatNet.sat6_7 delay:mean 1.0750654980833
attr interpolationmode none
attr source delay
attr title "delay, mean"
scalar SatNet.sat6_7 delay:sum 18.276113467416
attr interpolationmode none
attr source delay
attr title "delay, sum"
statistic SatNet.sat6_7 delay:stats
field count 17
field mean 1.0750654980833
field stddev 0.62274585434276
field min 0.140643125698
field max 1.960449162365
field sum 18.276113467416
field sqrsum 25.853017413492
attr interpolationmode none
attr source delay
attr title "delay, stats"
scalar SatNet.sat6_8 occupy:mean 0.016996442753488
attr interpolationmode none
attr source occupy
attr title "Empty-Full Ratio of Queue, mean"
scalar SatNet.sat6_8 occupy:sum 23.523076770827
attr interpolationmode none
attr source occupy
attr title "Empty-Full Ratio of Queue, sum"
statistic SatNet.sat6_8 occupy:stats
field count 1384
field mean 0.016996442753488
field stddev 0.0078676116334421
field min 0
field max 0.027692306786776
field sum 23.523076770827
field sqrsum 0.48541537734396
attr interpolationmode none
attr source occupy
attr title "Empty-Full Ratio of Queue, stats"
scalar SatNet.sat6_8 batteryEnergy:mean 4517.8573178969
attr checkSignals false
attr interpolationmode none
attr source energy
attr title "Battery energy, mean"
scalar SatNet.sat6_8 batteryEnergy:last 4048.1315917969
attr checkSignals false
attr interpolationmode none
attr source energy
attr title "Battery energy, last"
statistic SatNet.sat6_8 batteryEnergy:histogram
field count 587
field mean 4517.8573178969
field stddev 274.09379529714
field min 4048.1315917969
field max 4997.3002929688
field sum 2651982.2456055
field sqrsum 12025302056.693
attr checkSignals false
attr interpolationmode none
attr source energy
attr title "Battery energy, histogram"
bin	-inf	0
bin	3800	0
bin	3820	0
bin	3840	0
bin	3860	0
bin	3880	0
bin	3900	0
bin	3920	0
bin	3940	0
bin	3960	0
bin	3980	0
bin	4000	0
bin	4020	0
bin	4040	9
bin	4060	11
bin	4080	16
bin	4100	14
bin	4120	10
bin	4140	12
bin	4160	13
bin	4180	12
bin	4200	10
bin	4220	11
bin	4240	14
bin	4260	10
bin	4280	13
bin	4300	12
bin	4320	14
bin	4340	13
bin	4360	14
bin	4380	10
bin	4400	13
bin	4420	13
bin	4440	13
bin	4460	14
bin	4480	14
bin	4500	11
bin	4520	13
bin	4540	14
bin	4560	14
bin	4580	14
bin	4600	11
bin	4620	13
bin	4640	13
bin	4660	13
bin	4680	9
bin	4700	15
bin	4720	9
bin	4740	8
bin	4760	13
bin	4780	11
bin	4800	12
bin	4820	16
bin	4840	9
bin	4860	14
bin	4880	10
bin	4900	12
bin	4920	10
bin	4940	12
bin	4960	13
bin	4980	13
bin	5000	0
bin	5020	0
bin	5040	0
bin	5060	0
bin	5080	0
bin	5100	0
bin	5120	0
bin	5140	0
bin	5160	0
bin	5180	0
bin	5200	0
bin	5220	0
bin	5240	0
statistic SatNet.sat6_8 batteryEnergy:stats
field count 587
field mean 4517.8573178969
field stddev 274.09379529714
field min 4048.1315917969
field max 4997.3002929688
field sum 2651982.2456055
field sqrsum 12025302056.693
attr checkSignals false
attr interpolationmode none
attr source energy
attr title "Battery energy, stats"
scalar SatNet.sat6_8 dropPacketTimes:mean nan
attr checkSignals false
attr interpolationmode none
attr source dropmsg
attr title "drop packet times, mean"
scalar SatNet.sat6_8 dropPacketTimes:count 0
attr checkSignals false
attr interpolationmode none
attr source dropmsg
attr title "drop packet times, count"
statistic SatNet.sat6_8 dropPacketTimes:stats
field count 0
field mean nan
field stddev nan
field min nan
field max nan
field sum 0
field sqrsum 0
attr checkSignals false
attr interpolationmode none
attr source dropmsg
attr title "drop packet times, stats"
scalar SatNet.sat6_8 queue:mean 0.99513013659427
attr interpolationmode none
attr source queue
attr title "Queuing time, mean"
scalar SatNet.sat6_8 queue:sum 793.11871886563
attr interpolationmode none
attr source queue
attr title "Queuing time, sum"
statistic SatNet.sat6_8 queue:stats
field count 797
field mean 0.99513013659427
field stddev 0.57803876808678
field min 0.004391526669
field max 1.9985896757
field sum 793.11871886563
field sqrsum 1055.2228776996
attr interpolationmode none
attr source queue
attr title "Queuing time, stats"
scalar SatNet.sat6_8 hopCount:mean 5.3023839397742
attr interpolationmode none
attr source arrival
attr title "hop count, mean"
statistic SatNet.sat6_8 hopCount:stats
field count 797
field mean 5.3023839397742
field stddev 2.1624146279702
field min 0
field max 10
field sum 4226
field sqrsum 26130
attr interpolationmode none
attr source arrival
attr title "hop count, stats"
scalar SatNet.sat6_8 delay:mean 0.99530495619276
attr interpolationmode none
attr source delay
attr title "delay, mean"
scalar SatNet.sat6_8 delay:sum 793.25805008563
attr interpolationmode none
attr source delay
attr title "delay, sum"
statistic SatNet.sat6_8 delay:stats
field count 797
field mean 0.99530495619276
field stddev 0.5780434625431
field min 0.004622316669
field max 1.9989193757
field sum 793.25805008563
field sqrsum 1055.5045274827
attr interpolationmode none
attr source delay
attr title "delay, stats"
scalar SatNet.sat6_9 occupy:mean 0.023659466250458
attr interpolationmode none
attr source occupy
attr title "Empty-Full Ratio of Queue, mean"
scalar SatNet.sat6_9 occupy:sum 18.61999993911
attr interpolationmode none
attr source occupy
attr title "Empty-Full Ratio of Queue, sum"
statistic SatNet.sat6_9 occupy:stats
field count 787
field mean 0.023659466250458
field stddev 0.016568752936798
field min 0
field max 0.052307691425085
field sum 18.61999993911
field sqrsum 0.6563147892131
attr interpolationmode none
attr source occupy
attr title "Empty-Full Ratio of Queue, stats"
scalar SatNet.sat6_9 batteryEnergy:mean 4581.0323084677
attr checkSignals false
attr interpolationmode none
attr source energy
attr title "Battery energy, mean"
scalar SatNet.sat6_9 batteryEnergy:last 4166.4321289062
attr checkSignals false
attr interpolationmode none
attr source energy
attr title "Battery energy, last"
statistic SatNet.sat6_9 batteryEnergy:histogram
field count 775
field mean 4581.0323084677
field stddev 240.07178123838
field min 4166.4321289062
field max 4998.8999023438
field sum 3550300.0390625
field sqrsum 16308648255.853
attr checkSignals false
attr interpolationmode none
attr source energy
attr title "Battery energy, histogram"
bin	-inf	0
bin	3940	0
bin	3960	0
bin	3980	0
bin	4000	0
bin	4020	0
bin	4040	0
bin	4060	0
bin	4080	0
bin	4100	0
bin	4120	0
bin	4140	0
bin	4160	13
bin	4180	18
bin	4200	19
bin	4220	18
bin	4240	18
bin	4260	19
bin	4280	20
bin	4300	19
bin	4320	19
bin	4340	18
bin	4360	18
bin	4380	19
bin	4400	19
bin	4420	19
bin	4440	19
bin	4460	21
bin	4480	18
bin	4500	19
bin	4520	18
bin	4540	19
bin	4560	18
bin	4580	19
bin	4600	18
bin	4620	18
bin	4640	18
bin	4660	18
bin	4680	19
bin	4700	19
bin	4720	20
bin	4740	19
bin	4760	19
bin	4780	18
bin	4800	18
bin	4820	17
bin	4840	18
bin	4860	20
bin	4880	18
bin	4900	19
bin	4920	18
bin	4940	18
bin	4960	18
bin	4980	18
bin	5000	0
bin	5020	0
bin	5040	0
bin	5060	0
bin	5080	0
bin	5100	0
bin	5120	0
bin	5140	0
bin	5160	0
bin	5180	0
bin	5200	0
bin	5220	0
statistic SatNet.sat6_9 batteryEnergy:stats
field count 775
field mean 4581.0323084677
field stddev 240.07178123838
field min 4166.4321289062
field max 4998.8999023438
field sum 3550300.0390625
field sqrsum 16308648255.853
attr checkSignals false
attr interpolationmode none
attr source energy
attr title "Battery energy, stats"
scalar SatNet.sat6_9 dropPacketTimes:mean nan
attr checkSignals false
attr interpolationmode none
attr source dropmsg
attr title "drop packet times, mean"
scalar SatNet.sat6_9 dropPacketTimes:count 0
attr checkSignals false
attr interpolationmode none
attr source dropmsg
attr title "drop packet times, count"
statistic SatNet.sat6_9 dropPacketTimes:stats
field count 0
field mean nan
field stddev nan
field min nan
field max nan
field sum 0
field sqrsum 0
attr checkSignals false
attr interpolationmode none
attr source dropmsg
attr title "drop packet times, stats"
scalar SatNet.sat6_9 queue:mean 0.80884427126417
attr interpolationmode none
attr source queue
attr title "Queuing time, mean"
scalar SatNet.sat6_9 queue:sum 9.70613125517
attr interpolationmode none
attr source queue
attr title "Queuing time, sum"
statistic SatNet.sat6_9 queue:stats
field count 12
field mean 0.80884427126417
field stddev 0.63640406290952
field min 0.022979163334
field max 1.767811460002
field sum 9.70613125517
field sqrsum 12.305860106048
attr interpolationmode none
attr source queue
attr title "Queuing time, stats"
scalar SatNet.sat6_9 hopCount:mean 5
attr interpolationmode none
attr source arrival
attr title "hop count, mean"
statistic SatNet.sat6_9 hopCount:stats
field count 12
field mean 5
field stddev 3.3028912953791
field min 0
field max 10
field sum 60
field sqrsum 420
attr interpolationmode none
attr source arrival
attr title "hop count, stats"
scalar SatNet.sat6_9 delay:mean 0.80900912126417
attr interpolationmode none
attr source delay
attr title "delay, mean"
scalar SatNet.sat6_9 delay:sum 9.70810945517
attr interpolationmode none
attr source delay
attr title "delay, sum"
statistic SatNet.sat6_9 delay:stats
field count 12
field mean 0.80900912126417
field stddev 0.6364066961755
field min 0.023045103334
field max 1.768009280002
field sum 9.70810945517
field sqrsum 12.309097411771
attr interpolationmode none
attr source delay
attr title "delay, stats"
scalar SatNet.sat6_10 occupy:mean 0.016360452890464
attr interpolationmode none
attr source occupy
attr title "Empty-Full Ratio of Queue, mean"
scalar SatNet.sat6_10 occupy:sum 10.781538454816
attr interpolationmode none
attr source occupy
attr title "Empty-Full Ratio of Queue, sum"
statistic SatNet.sat6_10 occupy:stats
field count 659
field mean 0.016360452890464
field stddev 0.0055095446895404
field min 0
field max 0.027692306786776
field sum 10.781538454816
field sqrsum 0.19636449638415
attr interpolationmode none
attr source occupy
attr title "Empty-Full Ratio of Queue, stats"
scalar SatNet.sat6_10 batteryEnergy:mean 4647.0545635517
attr checkSignals false
attr interpolationmode none
attr source energy
attr title "Battery energy, mean"
scalar SatNet.sat6_10 batteryEnergy:last 4293.9409179688
attr checkSignals false
attr interpolationmode none
attr source energy
attr title "Battery energy, last"
statistic SatNet.sat6_10 batteryEnergy:histogram
field count 650
field mean 4647.0545635517
field stddev 205.29431239349
field min 4293.9409179688
field max 4998.8999023438
field sum 3020585.4663086
field sqrsum 14064178070.608
attr checkSignals false
attr interpolationmode none
attr source energy
attr title "Battery energy, histogram"
bin	-inf	0
bin	4100	0
bin	4120	0
bin	4140	0
bin	4160	0
bin	4180	0
bin	4200	0
bin	4220	0
bin	4240	0
bin	4260	0
bin	4280	6
bin	4300	18
bin	4320	19
bin	4340	19
bin	4360	18
bin	4380	18
bin	4400	20
bin	4420	18
bin	4440	18
bin	4460	19
bin	4480	18
bin	4500	19
bin	4520	18
bin	4540	18
bin	4560	19
bin	4580	18
bin	4600	18
bin	4620	18
bin	4640	18
bin	4660	19
bin	4680	18
bin	4700	17
bin	4720	19
bin	4740	18
bin	4760	19
bin	4780	18
bin	4800	18
bin	4820	18
bin	4840	18
bin	4860	19
bin	4880	18
bin	4900	17
bin	4920	19
bin	4940	18
bin	4960	20
bin	4980	20
bin	5000	0
bin	5020	0
bin	5040	0
bin	5060	0
bin	5080	0
bin	5100	0
bin	5120	0
bin	5140	0
bin	5160	0
bin	5180	0
statistic SatNet.sat6_10 batteryEnergy:stats
field count 650
field mean 4647.0545635517
field stddev 205.29431239349
field min 4293.9409179688
field max 4998.8999023438
field sum 3020585.4663086
field sqrsum 14064178070.608
attr checkSignals false
attr interpolationmode none
attr source energy
attr title "Battery energy, stats"
scalar SatNet.sat6_10 dropPacketTimes:mean nan
attr checkSignals false
attr interpolationmode none
attr source dropmsg
attr title "drop packet times, mean"
scalar SatNet.sat6_10 dropPacketTimes:count 0
attr checkSignals false
attr interpolationmode none
attr source dropmsg
attr title "drop packet times, count"
statistic SatNet.sat6_10 dropPacketTimes:stats
field count 0
field mean nan
field stddev nan
field min nan
field max nan
field sum 0
field sqrsum 0
attr checkSignals false
attr interpolationmode none
attr source dropmsg
attr title "drop packet times, stats"
scalar SatNet.sat6_10 queue:mean 0.70956629787344
attr interpolationmode none
attr source queue
attr title "Queuing time, mean"
scalar SatNet.sat6_10 queue:sum 6.386096680861
attr interpolationmode none
attr source queue
attr title "Queuing time, sum"
statistic SatNet.sat6_10 queue:stats
field count 9
field mean 0.70956629787344
field stddev 0.47555311943776
field min 0.213705149031
field max 1.764891312365
field sum 6.386096680861
field sqrsum 6.3405651349563
attr interpolationmode none
attr source queue
attr title "Queuing time, stats"
scalar SatNet.sat6_10 hopCount:mean 4.7777777777778
attr interpolationmode none
attr source arrival
attr title "hop count, mean"
statistic SatNet.sat6_10 hopCount:stats
field count 9
field mean 4.7777777777778
field stddev 2.4381231397213
field min 2
field max 9
field sum 43
field sqrsum 253
attr interpolationmode none
attr source arrival
attr title "hop count, stats"
scalar SatNet.sat6_10 delay:mean 0.70972382120678
attr interpolationmode none
attr source delay
attr title "delay, mean"
scalar SatNet.sat6_10 delay:sum 6.387514390861
attr interpolationmode none
attr source delay
attr title "delay, sum"
statistic SatNet.sat6_10 delay:stats
field count 9
field mean 0.70972382120678
field stddev 0.47554613521108
field min 0.213804059031
field max 1.765056162365
field sum 6.387514390861
field sqrsum 6.3425241352087
attr interpolationmode none
attr source delay
attr title "delay, stats"
scalar SatNet.sat6_11 occupy:mean 0.029074533758496
attr interpolationmode none
attr source occupy
attr title "Empty-Full Ratio of Queue, mean"
scalar SatNet.sat6_11 occupy:sum 24.335384755861
attr interpolationmode none
attr source occupy
attr title "Empty-Full Ratio of Queue, sum"
statistic SatNet.sat6_11 occupy:stats
field count 837
field mean 0.029074533758496
field stddev 0.014695494439356
field min 0
field max 0.059999998658895
field sum 24.335384755861
field sqrsum 0.8880804831094
attr interpolationmode none
attr source occupy
attr title "Empty-Full Ratio of Queue, stats"
scalar SatNet.sat6_11 batteryEnergy:mean 4555.4129696238
attr checkSignals false
attr interpolationmode none
attr source energy
attr title "Battery energy, mean"
scalar SatNet.sat6_11 batteryEnergy:last 4113.5278320312
attr checkSignals false
attr interpolationmode none
attr source energy
attr title "Battery energy, last"
statistic SatNet.sat6_11 batteryEnergy:histogram
field count 827
field mean 4555.4129696238
field stddev 257.47125799468
field min 4113.5278320312
field max 4998.8999023438
field sum 3767326.5258789
field sqrsum 17216484853.417
attr checkSignals false
attr interpolationmode none
attr source energy
attr title "Battery energy, histogram"
bin	-inf	0
bin	3880	0
bin	3900	0
bin	3920	0
bin	3940	0
bin	3960	0
bin	3980	0
bin	4000	0
bin	4020	0
bin	4040	0
bin	4060	0
bin	4080	0
bin	4100	7
bin	4120	20
bin	4140	20
bin	4160	18
bin	4180	19
bin	4200	18
bin	4220	19
bin	4240	18
bin	4260	19
bin	4280	19
bin	4300	18
bin	4320	19
bin	4340	18
bin	4360	20
bin	4380	20
bin	4400	18
bin	4420	17
bin	4440	18
bin	4460	20
bin	4480	18
bin	4500	18
bin	4520	18
bin	4540	19
bin	4560	19
bin	4580	20
bin	4600	18
bin	4620	18
bin	4640	17
bin	4660	19
bin	4680	17
bin	4700	19
bin	4720	18
bin	4740	20
bin	4760	19
bin	4780	18
bin	4800	19
bin	4820	17
bin	4840	19
bin	4860	19
bin	4880	19
bin	4900	19
bin	4920	18
bin	4940	20
bin	4960	18
bin	4980	19
bin	5000	0
bin	5020	0
bin	5040	0
bin	5060	0
bin	5080	0
bin	5100	0
bin	5120	0
bin	5140	0
bin	5160	0
bin	5180	0
bin	5200	0
bin	5220	0
bin	5240	0
statistic SatNet.sat6_11 batteryEnergy:stats
field count 827
field mean 4555.4129696238
field stddev 257.47125799468
field min 4113.5278320312
field max 4998.8999023438
field sum 3767326.5258789
field sqrsum 17216484853.417
attr checkSignals false
attr interpolationmode none
attr source energy
attr title "Battery energy, stats"
scalar SatNet.sat6_11 dropPacketTimes:mean nan
attr checkSignals false
attr interpolationmode none
attr source dropmsg
attr title "drop packet times, mean"
scalar SatNet.sat6_11 dropPacketTimes:count 0
attr checkSignals false
attr interpolationmode none
attr source dropmsg
attr title "drop packet times, count"
statistic SatNet.sat6_11 dropPacketTimes:stats
field count 0
field mean nan
field stddev nan
field min nan
field max nan
field sum 0
field sqrsum 0
attr checkSignals false
attr interpolationmode none
attr source dropmsg
attr title "drop packet times, stats"
scalar SatNet.sat6_11 queue:mean 0.7898539313227
attr interpolationmode none
attr source queue
attr title "Queuing time, mean"
scalar SatNet.sat6_11 queue:sum 7.898539313227
attr interpolationmode none
attr source queue
attr title "Queuing time, sum"
statistic SatNet.sat6_11 queue:stats
field count 10
field mean 0.7898539313227
field stddev 0.46352250277791
field min 0.012516609033
field max 1.343292052364
field sum 7.898539313227
field sqrsum 8.1723703234927
attr interpolationmode none
attr source queue
attr title "Queuing time, stats"
scalar SatNet.sat6_11 hopCount:mean 5.1
attr interpolationmode none
attr source arrival
attr title "hop count, mean"
statistic SatNet.sat6_11 hopCount:stats
field count 10
field mean 5.1
field stddev 2.5144029554195
field min 2
field max 9
field sum 51
field sqrsum 317
attr interpolationmode none
attr source arrival
attr title "hop count, stats"
scalar SatNet.sat6_11 delay:mean 0.7900220783227
attr interpolationmode none
attr source delay
attr title "delay, mean"
scalar SatNet.sat6_11 delay:sum 7.900220783227
attr interpolationmode none
attr source delay
attr title "delay, sum"
statistic SatNet.sat6_11 delay:stats
field count 10
field mean 0.7900220783227
field stddev 0.46348486693068
field min 0.012813339033
field max 1.343357992364
field sum 7.900220783227
field sqrsum 8.1747128392369
attr interpolationmode none
attr source delay
attr title "delay, stats"

